@<TRIPOS>MOLECULE
meets1
 40 44 0 0 0
SMALL
GASTEIGER

@<TRIPOS>ATOM
      1 PD          0.1205   -0.8756   -0.0994 Pd      1  UNL1        0.0000
      2 C           0.0983   -2.9520   -0.2647 C.2     1  UNL1        0.0000
      3 C           1.4966   -2.7623   -0.2630 C.2     1  UNL1        0.0000
      4 C           2.2005   -0.8052   -0.0364 C.2     1  UNL1        0.0000
      5 N          -1.9944   -0.5478   -0.1593 N.2     1  UNL1        0.0000
      6 C          -2.3328    0.6928   -0.1372 C.2     1  UNL1        0.0000
      7 C          -1.3514    1.7766   -0.0402 C.2     1  UNL1        0.0000
      8 N          -0.0717    1.3529    0.0212 N.2     1  UNL1        0.0000
      9 C           0.8953    2.2615    0.1199 C.2     1  UNL1        0.0000
     10 H           1.9155    1.8805    0.1651 H       1  UNL1        0.0000
     11 O          -3.6254    0.9835   -0.1925 O.2     1  UNL1        0.0000
     12 C           4.6050    0.5820    0.1763 C.2     1  UNL1        0.0000
     13 C           4.0475    0.3420   -1.0795 C.2     1  UNL1        0.0000
     14 C           2.8475   -0.3593   -1.1916 C.2     1  UNL1        0.0000
     15 C           2.7640   -0.5851    1.2231 C.2     1  UNL1        0.0000
     16 C           3.9632    0.1192    1.3251 C.2     1  UNL1        0.0000
     17 H           5.5495    1.1165    0.2590 H       1  UNL1        0.0000
     18 H           4.5522    0.6914   -1.9789 H       1  UNL1        0.0000
     19 H           2.4208   -0.5576   -2.1758 H       1  UNL1        0.0000
     20 H           2.2738   -0.9618    2.1219 H       1  UNL1        0.0000
     21 H           4.4020    0.2947    2.3061 H       1  UNL1        0.0000
     22 H           2.0628   -3.0542    0.6193 H       1  UNL1        0.0000
     23 H           2.0401   -2.8626   -1.2007 H       1  UNL1        0.0000
     24 H          -0.4142   -3.1640   -1.2057 H       1  UNL1        0.0000
     25 H          -0.3850   -3.3370    0.6353 H       1  UNL1        0.0000
     26 C          -1.7077    3.1158   -0.0078 C.2     1  UNL1        0.0000
     27 C          -0.6893    4.0625    0.0985 C.2     1  UNL1        0.0000
     28 C           0.6278    3.6305    0.1641 C.2     1  UNL1        0.0000
     29 C          -4.3054   -0.2799   -0.4301 C.3     1  UNL1        0.0000
     30 C          -3.2363   -1.3433   -0.1252 C.3     1  UNL1        0.0000
     31 H          -2.7555    3.4018   -0.0633 H       1  UNL1        0.0000
     32 H          -0.9276    5.1235    0.1290 H       1  UNL1        0.0000
     33 H           1.4500    4.3368    0.2480 H       1  UNL1        0.0000
     34 H          -5.1724   -0.3177    0.2364 H       1  UNL1        0.0000
     35 H          -4.6387   -0.2739   -1.4737 H       1  UNL1        0.0000
     36 H          -3.1941   -2.1055   -0.9145 H       1  UNL1        0.0000
     37 C          -3.4061   -1.9913    1.2370 C.3     1  UNL1        0.0000
     38 H          -4.3212   -2.5957    1.2659 H       1  UNL1        0.0000
     39 H          -2.5590   -2.6450    1.4749 H       1  UNL1        0.0000
     40 H          -3.4739   -1.2242    2.0210 H       1  UNL1        0.0000
@<TRIPOS>UNITY_ATOM_ATTR
1 1
charge 1
@<TRIPOS>BOND
     1     1     2    0
     2     1     5    0
     3     1     4    1
     4     1     8    0
     5     2    24    1
     6     2     3    2
     7     2    25    1
     8     3    23    1
     9     3    22    1
    10     3     4    0
    11     4    14    1
    12     4    15    2
    13     5     6    2
    14     5    30    1
    15     6    11    1
    16     6     7    1
    17     7    26    2
    18     7     8    1
    19     8     9    2
    20     9    28    1
    21     9    10    1
    22    11    29    1
    23    12    13    1
    24    12    17    1
    25    12    16    2
    26    13    18    1
    27    13    14    2
    28    14    19    1
    29    15    16    1
    30    15    20    1
    31    16    21    1
    32    26    31    1
    33    26    27    1
    34    27    32    1
    35    27    28    2
    36    28    33    1
    37    29    35    1
    38    29    30    1
    39    29    34    1
    40    30    36    1
    41    30    37    1
    42    37    38    1
    43    37    39    1
    44    37    40    1
