@<TRIPOS>MOLECULE
meets2
 40 44 0 0 0
SMALL
GASTEIGER

@<TRIPOS>ATOM
      1 PD         -0.0724   -0.9480    0.0058 Pd      1  UNL1        0.0000
      2 C          -0.1163   -3.0315   -0.0255 C.2     1  UNL1        0.0000
      3 C          -1.4998   -2.8184   -0.1895 C.2     1  UNL1        0.0000
      4 C          -2.1503   -0.8300   -0.0838 C.2     1  UNL1        0.0000
      5 N           0.1918    1.2171   -0.0851 N.2     1  UNL1        0.0000
      6 C           1.4267    1.5579   -0.1506 C.2     1  UNL1        0.0000
      7 C           2.5168    0.5820   -0.0541 C.2     1  UNL1        0.0000
      8 N           2.1092   -0.7010    0.0692 N.2     1  UNL1        0.0000
      9 C           3.0389   -1.6505    0.1795 C.2     1  UNL1        0.0000
     10 H           2.6820   -2.6742    0.2783 H       1  UNL1        0.0000
     11 O           1.7156    2.8455   -0.3012 O.2     1  UNL1        0.0000
     12 C          -3.8609    0.3589   -1.2943 C.2     1  UNL1        0.0000
     13 C          -4.5256    0.6175   -0.0958 C.2     1  UNL1        0.0000
     14 C          -4.0091    0.1364    1.1067 C.2     1  UNL1        0.0000
     15 C          -2.8222   -0.5943    1.1173 C.2     1  UNL1        0.0000
     16 C          -2.6756   -0.3751   -1.2951 C.2     1  UNL1        0.0000
     17 H          -5.4590    1.1772   -0.1015 H       1  UNL1        0.0000
     18 H          -4.5347    0.3230    2.0421 H       1  UNL1        0.0000
     19 H          -2.4258   -0.9798    2.0579 H       1  UNL1        0.0000
     20 H          -2.1650   -0.5892   -2.2352 H       1  UNL1        0.0000
     21 H          -4.2718    0.7180   -2.2369 H       1  UNL1        0.0000
     22 H          -1.9389   -2.9405   -1.1781 H       1  UNL1        0.0000
     23 H          -2.1695   -3.0573    0.6335 H       1  UNL1        0.0000
     24 H           0.2559   -3.3747    0.9430 H       1  UNL1        0.0000
     25 H           0.4833   -3.3095   -0.8959 H       1  UNL1        0.0000
     26 C           3.8535    0.9498   -0.0773 C.2     1  UNL1        0.0000
     27 C           4.8170   -0.0501    0.0406 C.2     1  UNL1        0.0000
     28 C           4.4038   -1.3685    0.1734 C.2     1  UNL1        0.0000
     29 C           0.4368    3.5032   -0.5296 C.3     1  UNL1        0.0000
     30 C          -0.6032    2.4602   -0.0871 C.3     1  UNL1        0.0000
     31 H           4.1225    1.9981   -0.1835 H       1  UNL1        0.0000
     32 H           5.8751    0.2020    0.0291 H       1  UNL1        0.0000
     33 H           5.1211   -2.1795    0.2702 H       1  UNL1        0.0000
     34 H           0.4275    4.4205    0.0666 H       1  UNL1        0.0000
     35 H           0.3910    3.7514   -1.5961 H       1  UNL1        0.0000
     36 H          -1.4176    2.3605   -0.8169 H       1  UNL1        0.0000
     37 C          -1.1600    2.7218    1.3010 C.3     1  UNL1        0.0000
     38 H          -1.7746    3.6308    1.3031 H       1  UNL1        0.0000
     39 H          -1.7842    1.8848    1.6340 H       1  UNL1        0.0000
     40 H          -0.3426    2.8548    2.0239 H       1  UNL1        0.0000
@<TRIPOS>UNITY_ATOM_ATTR
1 1
charge 1
@<TRIPOS>BOND
     1     1     5    0
     2     1     4    1
     3     1     2    0
     4     1     8    0
     5     2    25    1
     6     2     3    2
     7     2    24    1
     8     3    22    1
     9     3    23    1
    10     3     4    0
    11     4    16    1
    12     4    15    2
    13     5     6    2
    14     5    30    1
    15     6    11    1
    16     6     7    1
    17     7    26    2
    18     7     8    1
    19     8     9    2
    20     9    28    1
    21     9    10    1
    22    11    29    1
    23    12    21    1
    24    12    16    2
    25    12    13    1
    26    13    17    1
    27    13    14    2
    28    14    15    1
    29    14    18    1
    30    15    19    1
    31    16    20    1
    32    26    31    1
    33    26    27    1
    34    27    32    1
    35    27    28    2
    36    28    33    1
    37    29    35    1
    38    29    30    1
    39    29    34    1
    40    30    36    1
    41    30    37    1
    42    37    38    1
    43    37    39    1
    44    37    40    1
