@<TRIPOS>MOLECULE
Basic Ethane minimum
 8 7 0 0 0
SMALL
GASTEIGER

@<TRIPOS>ATOM
      1 H           0.0179    0.0310   -0.0055 H       1  UNL1        0.0227
      2 C          -0.0001   -0.0002    1.0901 C.3     1  UNL1       -0.0681
      3 H           1.0388    0.0310    1.4383 H       1  UNL1        0.0227
      4 C          -0.7216   -1.2499    1.6003 C.3     1  UNL1       -0.0681
      5 H          -0.4926    0.9151    1.4383 H       1  UNL1        0.0227
      6 H          -0.2291   -2.1652    1.2520 H       1  UNL1        0.0227
      7 H          -1.7605   -1.2810    1.2520 H       1  UNL1        0.0227
      8 H          -0.7396   -1.2810    2.6958 H       1  UNL1        0.0227
@<TRIPOS>BOND
     1     1     2    1
     2     2     3    1
     3     2     5    1
     4     2     4    1
     5     6     4    1
     6     7     4    1
     7     4     8    1
