@<TRIPOS>MOLECULE
Basic Ethane rotation TS
 16 14 0 0 0
SMALL
GASTEIGER

@<TRIPOS>ATOM
      1 H           0.0000    0.0000    0.0000 H       1  UNL1        0.0227
      2 C           0.0000    0.0000    0.0000 C.3     1  UNL1       -0.0681
      3 H           0.0000    0.0000    0.0000 H       1  UNL1        0.0227
      4 C           0.0000    0.0000    0.0000 C.3     1  UNL1       -0.0681
      5 H           0.0000    0.0000    0.0000 H       1  UNL1        0.0227
      6 H           0.0000    0.0000    0.0000 H       1  UNL1        0.0227
      7 H           0.0000    0.0000    0.0000 H       1  UNL1        0.0227
      8 H           0.0000    0.0000    0.0000 H       1  UNL1        0.0227
      9 H7         -0.0000    1.0167    1.1792 H       1  <1>         0.0000
     10 C3         -0.0000    0.0000    0.7724 C.3     1  <1>         0.0000
     11 H8          0.8805   -0.5083    1.1792 H       1  <1>         0.0000
     12 C4          0.0000    0.0000   -0.7724 C.3     1  <1>         0.0000
     13 H9         -0.8805   -0.5083    1.1792 H       1  <1>         0.0000
     14 H10         0.8805   -0.5083   -1.1792 H       1  <1>         0.0000
     15 H11         0.0000    1.0167   -1.1792 H       1  <1>         0.0000
     16 H12        -0.8805   -0.5083   -1.1792 H       1  <1>         0.0000
@<TRIPOS>BOND
     1     1     2    1
     2     2     3    1
     3     2     5    1
     4     2     4    1
     5     6     4    1
     6     7     4    1
     7     4     8    1
     8    14    12    1
     9    15    12    1
    10    16    12    1
    11    12    10    1
    12    10     9    1
    13    10    11    1
    14    10    13    1
