@<TRIPOS>MOLECULE
Basic Ethane rotation TS
8 7 0 0 0
SMALL
GASTEIGER

@<TRIPOS>ATOM
      1 H           0.0000    0.0000    0.0000 H       1  UNL1        0.0227
      2 C           0.0000    0.0000    0.0000 C3      1  UNL1       -0.0681
      3 H           0.0000    0.0000    0.0000 H       1  UNL1        0.0227
      4 C           0.0000    0.0000    0.0000 C3      1  UNL1       -0.0681
      5 H           0.0000    0.0000    0.0000 H       1  UNL1        0.0227
      6 H           0.0000    0.0000    0.0000 H       1  UNL1        0.0227
      7 H           0.0000    0.0000    0.0000 H       1  UNL1        0.0227
      8 H           0.0000    0.0000    0.0000 H       1  UNL1        0.0227
@<TRIPOS>BOND
     1     1     2    1
     2     2     3    1
     3     2     5    1
     4     2     4    1
     5     6     4    1
     6     7     4    1
     7     4     8    1
