@<TRIPOS>MOLECULE
4 (R,R)-Me-DuPHOS pro-R from JCTC SI
 62 65 0 0 0
SMALL
GASTEIGER

@<TRIPOS>ATOM
      1 RH          0.0000    0.0000    0.0000 RH      1  UNL1        0.0000
      2 O           0.0000    0.0000    2.2298 O.3     1  UNL1        0.0000
      3 C           1.1304    0.0000    2.7545 C3      1  UNL1        0.0000
      4 N           2.2647   -0.1131    2.0501 N.3     1  UNL1        0.0000
      5 C           2.2311   -0.3941    0.6355 C3      1  UNL1        0.0000
      6 C           1.6215   -1.6075    0.2147 C3      1  UNL1        0.0000
      7 C           3.2193    0.2631   -0.1527 C1      1  UNL1        0.0000
      8 N           4.0518    0.7773   -0.7865 N1      1  UNL1        0.0000
      9 H           1.4011   -2.3476    0.9780 H       1  UNL1        0.0000
     10 H           1.8985   -2.0120   -0.7521 H       1  UNL1        0.0000
     11 H           3.1561   -0.0984    2.5335 H       1  UNL1        0.0000
     12 H           1.2456    0.1008    3.8395 H       1  UNL1        0.0000
     13 P          -0.2385    0.1390   -2.2661 P3      1  UNL1        0.0000
     14 P          -0.5582    2.3241    0.0408 P3      1  UNL1        0.0000
     15 C          -1.0770    1.7335   -2.6518 C2      1  UNL1        0.0000
     16 C          -1.1951    2.7104   -1.6421 C2      1  UNL1        0.0000
     17 H          -1.5546   -0.1218   -0.1104 H       1  UNL1        0.0000
     18 H          -0.0920   -1.6074   -0.0906 H       1  UNL1        0.0000
     19 C          -1.1456   -1.2209   -3.2021 C3      1  UNL1        0.0000
     20 C           1.3385    0.0391   -3.2998 C3      1  UNL1        0.0000
     21 C          -1.9018    2.6471    1.3202 C3      1  UNL1        0.0000
     22 C           0.5033    3.8043    0.5503 C3      1  UNL1        0.0000
     23 C          -1.7953    3.9418   -1.9469 C2      1  UNL1        0.0000
     24 H          -1.8935    4.7056   -1.1815 H       1  UNL1        0.0000
     25 C          -1.5618    2.0096   -3.9401 C2      1  UNL1        0.0000
     26 H          -1.4686    1.2758   -4.7345 H       1  UNL1        0.0000
     27 C          -2.2837    4.2002   -3.2261 C2      1  UNL1        0.0000
     28 H          -2.7559    5.1537   -3.4424 H       1  UNL1        0.0000
     29 C          -2.1663    3.2326   -4.2242 C2      1  UNL1        0.0000
     30 H          -2.5420    3.4291   -5.2237 H       1  UNL1        0.0000
     31 C          -0.0835    4.2382    1.9127 C3      1  UNL1        0.0000
     32 H           0.2066    5.2701    2.1379 H       1  UNL1        0.0000
     33 H           0.3367    3.6091    2.7090 H       1  UNL1        0.0000
     34 C          -1.6075    4.0622    1.8623 C3      1  UNL1        0.0000
     35 H          -2.0668    4.1961    2.8478 H       1  UNL1        0.0000
     36 H          -2.0534    4.8184    1.2025 H       1  UNL1        0.0000
     37 C           0.9484   -0.8476   -4.5041 C3      1  UNL1        0.0000
     38 H           1.8451   -1.2829   -4.9579 H       1  UNL1        0.0000
     39 H           0.4706   -0.2316   -5.2773 H       1  UNL1        0.0000
     40 C          -0.0289   -1.9222   -4.0091 C3      1  UNL1        0.0000
     41 H           0.4967   -2.6404   -3.3649 H       1  UNL1        0.0000
     42 H          -0.4620   -2.4975   -4.8340 H       1  UNL1        0.0000
     43 C          -3.3433    2.4019    0.8704 C3      1  UNL1        0.0000
     44 H          -3.4884    1.3742    0.5240 H       1  UNL1        0.0000
     45 H          -3.6433    3.0793    0.0658 H       1  UNL1        0.0000
     46 H          -4.0226    2.5633    1.7139 H       1  UNL1        0.0000
     47 C           2.0141    3.5724    0.5556 C3      1  UNL1        0.0000
     48 H           2.2954    2.7886    1.2657 H       1  UNL1        0.0000
     49 H           2.5302    4.4913    0.8541 H       1  UNL1        0.0000
     50 H           2.3951    3.2836   -0.4272 H       1  UNL1        0.0000
     51 C           1.9902    1.3754   -3.6638 C3      1  UNL1        0.0000
     52 H           2.2947    1.9347   -2.7757 H       1  UNL1        0.0000
     53 H           1.3229    2.0024   -4.2619 H       1  UNL1        0.0000
     54 H           2.8943    1.1884   -4.2519 H       1  UNL1        0.0000
     55 C          -2.0197   -2.1606   -2.3715 C3      1  UNL1        0.0000
     56 H          -2.7981   -1.6212   -1.8251 H       1  UNL1        0.0000
     57 H          -1.4277   -2.7222   -1.6426 H       1  UNL1        0.0000
     58 H          -2.5113   -2.8816   -3.0331 H       1  UNL1        0.0000
     59 H          -1.6543    1.9199    2.1037 H       1  UNL1        0.0000
     60 H           2.0399   -0.5230   -2.6713 H       1  UNL1        0.0000
     61 H          -1.7909   -0.6834   -3.9076 H       1  UNL1        0.0000
     62 H           0.2675    4.5783   -0.1912 H       1  UNL1        0.0000
@<TRIPOS>BOND
     1    39    37    1
     2    30    29    1
     3    38    37    1
     4    42    40    1
     5    26    25    1
     6    37    40    1
     7    37    20    1
     8    53    51    1
     9    54    51    1
    10    29    25   ar
    11    29    27   ar
    12    40    41    1
    13    40    19    1
    14    25    15   ar
    15    61    19    1
    16    51    20    1
    17    51    52    1
    18    28    27    1
    19    20    60    1
    20    20    13    1
    21    27    23   ar
    22    19    55    1
    23    19    13    1
    24    58    55    1
    25    15    13    1
    26    15    16   ar
    27    55    56    1
    28    55    57    1
    29    13     1    1
    30    23    16   ar
    31    23    24    1
    32    16    14    1
    33     8     7    3
    34    10     6    1
    35    50    47    1
    36    62    22    1
    37     7     5    1
    38    17     1    1
    39    18     1    1
    40     1     5    nc
    41     1     2    nc
    42    14    22    1
    43    14    21    1
    44    45    43    1
    45     6     5    2
    46     6     9    1
    47    44    43    1
    48    22    47    1
    49    22    31    1
    50    47    49    1
    51    47    48    1
    52     5     4    1
    53    43    21    1
    54    43    46    1
    55    36    34    1
    56    21    34    1
    57    21    59    1
    58    34    31    1
    59    34    35    1
    60    31    32    1
    61    31    33    1
    62     4    11    1
    63     4     3    1
    64     2     3    2
    65     3    12    1
    66     1    14    1
    67     6    18    nc
