@<TRIPOS>MOLECULE
6 (R,R)-Me-BPE pro-R Conformation 1 from JCTC SI
58   62    1
SMALL
USER_CHARGES


@<TRIPOS>ATOM
      1 RH          0.0000    0.0000    0.0000 RH        1 UNL         0.0000 
      2 O           0.0000    0.0000    2.2288 O2        1 UNL         0.0000 
      3 C           1.1317    0.0000    2.7494 C2        1 UNL         0.0000 
      4 N           2.2657   -0.0925    2.0401 N2        1 UNL         0.0000 
      5 C           2.2313   -0.3431    0.6202 C2        1 UNL         0.0000 
      6 C           1.6613   -1.5685    0.1766 C2        1 UNL         0.0000 
      7 C           3.1774    0.3766   -0.1653 C1        1 UNL         0.0000 
      8 N           3.9712    0.9481   -0.8000 N1        1 UNL         0.0000 
      9 H           1.4775   -2.3330    0.9256 H1        1 UNL         0.0000 
     10 H           1.9429   -1.9418   -0.8015 H1        1 UNL         0.0000 
     11 H           3.1582   -0.0734    2.5214 H3        1 UNL         0.0000 
     12 H           1.2499    0.0834    3.8356 H1        1 UNL         0.0000 
     13 P          -0.2708    0.1302   -2.2679 P3        1 UNL         0.0000 
     14 P          -0.5713    2.3345    0.0546 P3        1 UNL         0.0000 
     15 C          -1.3323    1.6278   -2.5848 C3        1 UNL         0.0000 
     16 C          -0.9442    2.8254   -1.7083 C3        1 UNL         0.0000 
     17 H          -1.5539   -0.1555   -0.1072 H1        1 UNL         0.0000 
     18 H          -0.0433   -1.6103   -0.0983 H1        1 UNL         0.0000 
     19 C          -1.0921   -1.2549   -3.2434 C3        1 UNL         0.0000 
     20 C           1.2638    0.2270   -3.3495 C3        1 UNL         0.0000 
     21 C          -2.0818    2.6258    1.1312 C3        1 UNL         0.0000 
     22 C           0.3951    3.8089    0.7327 C3        1 UNL         0.0000 
     23 C          -0.3963    4.2375    1.9883 C3        1 UNL         0.0000 
     24 H          -0.1534    5.2714    2.2555 H1        1 UNL         0.0000 
     25 H          -0.1022    3.6095    2.8400 H1        1 UNL         0.0000 
     26 C          -1.8909    4.0498    1.6958 C3        1 UNL         0.0000 
     27 H          -2.5059    4.1932    2.5907 H1        1 UNL         0.0000 
     28 H          -2.2244    4.7913    0.9572 H1        1 UNL         0.0000 
     29 C           0.8649   -0.5537   -4.6228 C3        1 UNL         0.0000 
     30 H           1.7600   -0.8532   -5.1780 H1        1 UNL         0.0000 
     31 H           0.2811    0.0969   -5.2880 H1        1 UNL         0.0000 
     32 C           0.0196   -1.7593   -4.1925 C3        1 UNL         0.0000 
     33 H           0.6498   -2.4887   -3.6655 H1        1 UNL         0.0000 
     34 H          -0.4197   -2.2816   -5.0484 H1        1 UNL         0.0000 
     35 C          -3.4412    2.3671    0.4768 C3        1 UNL         0.0000 
     36 H          -3.5345    1.3342    0.1273 H1        1 UNL         0.0000 
     37 H          -3.6255    3.0402   -0.3675 H1        1 UNL         0.0000 
     38 H          -4.2403    2.5367    1.2060 H1        1 UNL         0.0000 
     39 C           1.8914    3.5951    0.9636 C3        1 UNL         0.0000 
     40 H           2.0718    2.8163    1.7114 H1        1 UNL         0.0000 
     41 H           2.3464    4.5202    1.3331 H1        1 UNL         0.0000 
     42 H           2.4190    3.3085    0.0501 H1        1 UNL         0.0000 
     43 C           1.8324    1.6255   -3.6094 C3        1 UNL         0.0000 
     44 H           2.1745    2.1060   -2.6893 H1        1 UNL         0.0000 
     45 H           1.1061    2.2758   -4.1085 H1        1 UNL         0.0000 
     46 H           2.7030    1.5455   -4.2685 H1        1 UNL         0.0000 
     47 C          -1.7842   -2.3541   -2.4361 C3        1 UNL         0.0000 
     48 H          -2.5663   -1.9572   -1.7834 H1        1 UNL         0.0000 
     49 H          -1.0718   -2.8995   -1.8092 H1        1 UNL         0.0000 
     50 H          -2.2481   -3.0740   -3.1185 H1        1 UNL         0.0000 
     51 H          -1.9448    1.9064    1.9489 H1        1 UNL         0.0000 
     52 H           2.0225   -0.3556   -2.8117 H1        1 UNL         0.0000 
     53 H          -1.8468   -0.7352   -3.8501 H1        1 UNL         0.0000 
     54 H           0.2634    4.5869   -0.0324 H1        1 UNL         0.0000 
     55 H          -1.2900    1.8865   -3.6489 H1        1 UNL         0.0000 
     56 H          -2.3577    1.3076   -2.3705 H1        1 UNL         0.0000 
     57 H          -1.7245    3.5936   -1.7325 H1        1 UNL         0.0000 
     58 H          -0.0284    3.2907   -2.0874 H1        1 UNL         0.0000 
@<TRIPOS>BOND
     1    1   13 1    
     2    1   17 1    
     3    1   18 1    
     4    1    5 nc   
     5    1    2 nc   
     6    1   14 1    
     7    2    3 2    
     8    3    4 am   BACKBONE|DICT|INTERRES
     9    3   12 1    
    10    4    5 1    
    11    4   11 1    
    12    5    7 1    
    13    5    6 2    
    14    6   10 1    
    15    6    9 1    
    16    6   18 nc   
    17    7    8 3    
    18   13   20 1    
    19   13   19 1    
    20   13   15 1    
    21   14   16 1    
    22   14   22 1    
    23   14   21 1    
    24   15   55 1    
    25   15   56 1    
    26   15   16 1    
    27   16   58 1    
    28   16   57 1    
    29   19   32 1    
    30   19   53 1    
    31   19   47 1    
    32   20   29 1    
    33   20   43 1    
    34   20   52 1    
    35   21   35 1    
    36   21   26 1    
    37   21   51 1    
    38   22   54 1    
    39   22   39 1    
    40   22   23 1    
    41   23   26 1    
    42   23   24 1    
    43   23   25 1    
    44   26   28 1    
    45   26   27 1    
    46   29   31 1    
    47   29   30 1    
    48   29   32 1    
    49   32   34 1    
    50   32   33 1    
    51   35   37 1    
    52   35   36 1    
    53   35   38 1    
    54   39   42 1    
    55   39   41 1    
    56   39   40 1    
    57   43   46 1    
    58   43   45 1    
    59   43   44 1    
    60   47   50 1    
    61   47   49 1    
    62   47   48 1    
@<TRIPOS>SUBSTRUCTURE
     1 UNL         1 GROUP             0       ****    0 ROOT    
