@<TRIPOS>MOLECULE
6 (R,R)-Me-BPE pro-R Conformation 1 from JCTC SI
 58 60 0 0 0
SMALL
GASTEIGER

@<TRIPOS>ATOM
      1 RH          0.0000    0.0000    0.0000 RH      1  UNL1        0.0000
      2 O           0.0000    0.0000    2.2288 O.3     1  UNL1        0.0000
      3 C           1.1317    0.0000    2.7494 C3      1  UNL1        0.0000
      4 N           2.2657   -0.0925    2.0401 N.3     1  UNL1        0.0000
      5 C           2.2313   -0.3431    0.6202 C3      1  UNL1        0.0000
      6 C           1.6613   -1.5685    0.1766 C3      1  UNL1        0.0000
      7 C           3.1774    0.3766   -0.1653 C1      1  UNL1        0.0000
      8 N           3.9712    0.9481   -0.8000 N1      1  UNL1        0.0000
      9 H           1.4775   -2.3330    0.9256 H       1  UNL1        0.0000
     10 H           1.9429   -1.9418   -0.8015 H       1  UNL1        0.0000
     11 H           3.1582   -0.0734    2.5214 H       1  UNL1        0.0000
     12 H           1.2499    0.0834    3.8356 H       1  UNL1        0.0000
     13 P          -0.2708    0.1302   -2.2679 P3      1  UNL1        0.0000
     14 P          -0.5713    2.3345    0.0546 P3      1  UNL1        0.0000
     15 C          -1.3323    1.6278   -2.5848 C3      1  UNL1        0.0000
     16 C          -0.9442    2.8254   -1.7083 C3      1  UNL1        0.0000
     17 H          -1.5539   -0.1555   -0.1072 H       1  UNL1        0.0000
     18 H          -0.0433   -1.6103   -0.0983 H       1  UNL1        0.0000
     19 C          -1.0921   -1.2549   -3.2434 C3      1  UNL1        0.0000
     20 C           1.2638    0.2270   -3.3495 C3      1  UNL1        0.0000
     21 C          -2.0818    2.6258    1.1312 C3      1  UNL1        0.0000
     22 C           0.3951    3.8089    0.7327 C3      1  UNL1        0.0000
     23 C          -0.3963    4.2375    1.9883 C3      1  UNL1        0.0000
     24 H          -0.1534    5.2714    2.2555 H       1  UNL1        0.0000
     25 H          -0.1022    3.6095    2.8400 H       1  UNL1        0.0000
     26 C          -1.8909    4.0498    1.6958 C3      1  UNL1        0.0000
     27 H          -2.5059    4.1932    2.5907 H       1  UNL1        0.0000
     28 H          -2.2244    4.7913    0.9572 H       1  UNL1        0.0000
     29 C           0.8649   -0.5537   -4.6228 C3      1  UNL1        0.0000
     30 H           1.7600   -0.8532   -5.1780 H       1  UNL1        0.0000
     31 H           0.2811    0.0969   -5.2880 H       1  UNL1        0.0000
     32 C           0.0196   -1.7593   -4.1925 C3      1  UNL1        0.0000
     33 H           0.6498   -2.4887   -3.6655 H       1  UNL1        0.0000
     34 H          -0.4197   -2.2816   -5.0484 H       1  UNL1        0.0000
     35 C          -3.4412    2.3671    0.4768 C3      1  UNL1        0.0000
     36 H          -3.5345    1.3342    0.1273 H       1  UNL1        0.0000
     37 H          -3.6255    3.0402   -0.3675 H       1  UNL1        0.0000
     38 H          -4.2403    2.5367    1.2060 H       1  UNL1        0.0000
     39 C           1.8914    3.5951    0.9636 C3      1  UNL1        0.0000
     40 H           2.0718    2.8163    1.7114 H       1  UNL1        0.0000
     41 H           2.3464    4.5202    1.3331 H       1  UNL1        0.0000
     42 H           2.4190    3.3085    0.0501 H       1  UNL1        0.0000
     43 C           1.8324    1.6255   -3.6094 C3      1  UNL1        0.0000
     44 H           2.1745    2.1060   -2.6893 H       1  UNL1        0.0000
     45 H           1.1061    2.2758   -4.1085 H       1  UNL1        0.0000
     46 H           2.7030    1.5455   -4.2685 H       1  UNL1        0.0000
     47 C          -1.7842   -2.3541   -2.4361 C3      1  UNL1        0.0000
     48 H          -2.5663   -1.9572   -1.7834 H       1  UNL1        0.0000
     49 H          -1.0718   -2.8995   -1.8092 H       1  UNL1        0.0000
     50 H          -2.2481   -3.0740   -3.1185 H       1  UNL1        0.0000
     51 H          -1.9448    1.9064    1.9489 H       1  UNL1        0.0000
     52 H           2.0225   -0.3556   -2.8117 H       1  UNL1        0.0000
     53 H          -1.8468   -0.7352   -3.8501 H       1  UNL1        0.0000
     54 H           0.2634    4.5869   -0.0324 H       1  UNL1        0.0000
     55 H          -1.2900    1.8865   -3.6489 H       1  UNL1        0.0000
     56 H          -2.3577    1.3076   -2.3705 H       1  UNL1        0.0000
     57 H          -1.7245    3.5936   -1.7325 H       1  UNL1        0.0000
     58 H          -0.0284    3.2907   -2.0874 H       1  UNL1        0.0000
@<TRIPOS>BOND
     1    31    29    1
     2    30    29    1
     3    34    32    1
     4    29    32    1
     5    29    20    1
     6    46    43    1
     7    32    33    1
     8    32    19    1
     9    45    43    1
    10    53    19    1
    11    55    15    1
    12    43    20    1
    13    43    44    1
    14    20    52    1
    15    20    13    1
    16    19    47    1
    17    19    13    1
    18    50    47    1
    19    15    56    1
    20    15    13    1
    21    15    16    1
    22    47    49    1
    23    47    48    1
    24    13     1    1
    25    58    16    1
    26    57    16    1
    27    16    14    1
    28    10     6    1
    29     8     7    3
    30    37    35    1
    31     7     5    1
    32    17     1    1
    33    18     1    1
    34    54    22    1
    35     1     5    nc
    36     1     2    nc
    37    42    39    1
    38    14    22    1
    39    14    21    1
    40    36    35    1
    41     6     5    2
    42     6     9    1
    43    35    21    1
    44    35    38    1
    45     5     4    1
    46    22    39    1
    47    22    23    1
    48    28    26    1
    49    39    41    1
    50    39    40    1
    51    21    26    1
    52    21    51    1
    53    26    23    1
    54    26    27    1
    55    23    24    1
    56    23    25    1
    57     4    11    1
    58     4     3    am
    59     2     3    2
    60     3    12    1
    61     1    14    1
    62     6    18    nc
