@<TRIPOS>MOLECULE
7 (R,R)-Me-BPE pro-R Conformation 2 from JCTC SI
58   62    1
SMALL
USER_CHARGES


@<TRIPOS>ATOM
      1 RH          0.0000    0.0000    0.0000 RH        1 UNL         0.0000 
      2 O           0.0000    0.0000    2.2260 O2        1 UNL         0.0000 
      3 C           1.1318    0.0000    2.7489 C2        1 UNL         0.0000 
      4 N           2.2648   -0.1161    2.0434 N2        1 UNL         0.0000 
      5 C           2.2278   -0.4098    0.6317 C2        1 UNL         0.0000 
      6 C           1.6057   -1.6212    0.2221 C2        1 UNL         0.0000 
      7 C           3.2232    0.2260   -0.1643 C1        1 UNL         0.0000 
      8 N           4.0589    0.7222   -0.8081 N1        1 UNL         0.0000 
      9 H           1.3727   -2.3494    0.9930 H1        1 UNL         0.0000 
     10 H           1.8836   -2.0403   -0.7378 H1        1 UNL         0.0000 
     11 H           3.1570   -0.1033    2.5256 H3        1 UNL         0.0000 
     12 H           1.2483    0.1039    3.8334 H1        1 UNL         0.0000 
     13 P          -0.2294    0.1350   -2.2847 P3        1 UNL         0.0000 
     14 P          -0.5831    2.3318    0.0584 P3        1 UNL         0.0000 
     15 C          -0.6857    1.9026   -2.6882 C3        1 UNL         0.0000 
     16 C          -1.4868    2.5603   -1.5554 C3        1 UNL         0.0000 
     17 H          -1.5553   -0.1034   -0.0928 H1        1 UNL         0.0000 
     18 H          -0.0978   -1.6065   -0.1109 H1        1 UNL         0.0000 
     19 C          -1.4775   -0.9814   -3.1532 C3        1 UNL         0.0000 
     20 C           1.2270   -0.3418   -3.3868 C3        1 UNL         0.0000 
     21 C          -1.7387    2.8009    1.4564 C3        1 UNL         0.0000 
     22 C           0.5337    3.8493    0.2415 C3        1 UNL         0.0000 
     23 C           0.0531    4.5184    1.5527 C3        1 UNL         0.0000 
     24 H           0.3193    5.5807    1.5546 H1        1 UNL         0.0000 
     25 H           0.5737    4.0594    2.4040 H1        1 UNL         0.0000 
     26 C          -1.4591    4.2998    1.6951 C3        1 UNL         0.0000 
     27 H          -1.8244    4.6070    2.6810 H1        1 UNL         0.0000 
     28 H          -2.0010    4.9014    0.9530 H1        1 UNL         0.0000 
     29 C           0.5812   -1.1376   -4.5452 C3        1 UNL         0.0000 
     30 H           1.3286   -1.7777   -5.0256 H1        1 UNL         0.0000 
     31 H           0.2206   -0.4386   -5.3115 H1        1 UNL         0.0000 
     32 C          -0.5944   -1.9426   -3.9804 C3        1 UNL         0.0000 
     33 H          -0.2253   -2.7513   -3.3350 H1        1 UNL         0.0000 
     34 H          -1.1872   -2.4148   -4.7706 H1        1 UNL         0.0000 
     35 C          -3.2126    2.4339    1.2644 C3        1 UNL         0.0000 
     36 H          -3.3448    1.3628    1.0825 H1        1 UNL         0.0000 
     37 H          -3.6671    2.9873    0.4361 H1        1 UNL         0.0000 
     38 H          -3.7752    2.6833    2.1701 H1        1 UNL         0.0000 
     39 C           2.0400    3.5872    0.1973 C3        1 UNL         0.0000 
     40 H           2.3506    2.9111    1.0002 H1        1 UNL         0.0000 
     41 H           2.5855    4.5281    0.3278 H1        1 UNL         0.0000 
     42 H           2.3633    3.1462   -0.7488 H1        1 UNL         0.0000 
     43 C           2.1414    0.8003   -3.8430 C3        1 UNL         0.0000 
     44 H           2.6037    1.3258   -3.0034 H1        1 UNL         0.0000 
     45 H           1.6067    1.5218   -4.4691 H1        1 UNL         0.0000 
     46 H           2.9552    0.3880   -4.4486 H1        1 UNL         0.0000 
     47 C          -2.5173   -1.6843   -2.2805 C3        1 UNL         0.0000 
     48 H          -3.1477   -0.9763   -1.7353 H1        1 UNL         0.0000 
     49 H          -2.0443   -2.3427   -1.5463 H1        1 UNL         0.0000 
     50 H          -3.1713   -2.2950   -2.9119 H1        1 UNL         0.0000 
     51 H          -1.3486    2.2309    2.3093 H1        1 UNL         0.0000 
     52 H           1.8205   -1.0373   -2.7808 H1        1 UNL         0.0000 
     53 H          -1.9946   -0.3110   -3.8536 H1        1 UNL         0.0000 
     54 H           0.2591    4.4990   -0.6003 H1        1 UNL         0.0000 
     55 H           0.2525    2.4432   -2.8502 H1        1 UNL         0.0000 
     56 H          -1.2380    1.9283   -3.6340 H1        1 UNL         0.0000 
     57 H          -2.4686    2.0882   -1.4510 H1        1 UNL         0.0000 
     58 H          -1.6522    3.6221   -1.7664 H1        1 UNL         0.0000 
@<TRIPOS>BOND
     1    1   13 1    
     2    1   17 1    
     3    1   18 1    
     4    1    5 nc   
     5    1    2 nc   
     6    1   14 1    
     7    2    3 2    
     8    3    4 am   BACKBONE|DICT|INTERRES
     9    3   12 1    
    10    4    5 1    
    11    4   11 1    
    12    5    7 1    
    13    5    6 2    
    14    6   10 1    
    15    6    9 1    
    16    6   18 nc   
    17    7    8 3    
    18   13   20 1    
    19   13   19 1    
    20   13   15 1    
    21   14   16 1    
    22   14   22 1    
    23   14   21 1    
    24   15   55 1    
    25   15   56 1    
    26   15   16 1    
    27   16   58 1    
    28   16   57 1    
    29   19   32 1    
    30   19   53 1    
    31   19   47 1    
    32   20   29 1    
    33   20   43 1    
    34   20   52 1    
    35   21   35 1    
    36   21   26 1    
    37   21   51 1    
    38   22   54 1    
    39   22   39 1    
    40   22   23 1    
    41   23   26 1    
    42   23   24 1    
    43   23   25 1    
    44   26   28 1    
    45   26   27 1    
    46   29   31 1    
    47   29   30 1    
    48   29   32 1    
    49   32   34 1    
    50   32   33 1    
    51   35   37 1    
    52   35   36 1    
    53   35   38 1    
    54   39   42 1    
    55   39   41 1    
    56   39   40 1    
    57   43   46 1    
    58   43   45 1    
    59   43   44 1    
    60   47   50 1    
    61   47   49 1    
    62   47   48 1    
@<TRIPOS>SUBSTRUCTURE
     1 UNL         1 GROUP             0       ****    0 ROOT    
