@<TRIPOS>MOLECULE
9 (R,R)-Me-BPE pro-S Conformation 2 from JCTC SI
58   62    1
SMALL
USER_CHARGES


@<TRIPOS>ATOM
      1 RH          0.0000    0.0000    0.0000 RH        1 UNL         0.0000 
      2 O           0.0000    0.0000    2.2260 O2        1 UNL         0.0000 
      3 C           1.1232    0.0000    2.7618 C2        1 UNL         0.0000 
      4 N           2.2640    0.0816    2.0631 N2        1 UNL         0.0000 
      5 C           2.2470    0.3000    0.6360 C2        1 UNL         0.0000 
      6 C           1.7230    1.5328    0.1612 C2        1 UNL         0.0000 
      7 C           3.1689   -0.5044   -0.0949 C1        1 UNL         0.0000 
      8 N           3.9487   -1.1757   -0.6429 N1        1 UNL         0.0000 
      9 H           1.5807    2.3230    0.8922 H1        1 UNL         0.0000 
     10 H           2.0063    1.8660   -0.8302 H1        1 UNL         0.0000 
     11 H           3.1526    0.0519    2.5509 H3        1 UNL         0.0000 
     12 H           1.2276   -0.0713    3.8504 H1        1 UNL         0.0000 
     13 P          -0.5485   -0.0234   -2.2355 P3        1 UNL         0.0000 
     14 P          -0.3862   -2.3744   -0.0284 P3        1 UNL         0.0000 
     15 C          -1.5018   -1.6064   -2.4792 C3        1 UNL         0.0000 
     16 C          -0.7733   -2.7817   -1.8088 C3        1 UNL         0.0000 
     17 H          -1.5514    0.1584   -0.0299 H1        1 UNL         0.0000 
     18 H           0.0398    1.6237   -0.0600 H1        1 UNL         0.0000 
     19 C          -1.6115    1.3939   -2.8434 C3        1 UNL         0.0000 
     20 C           0.6651    0.0418   -3.6916 C3        1 UNL         0.0000 
     21 C          -1.8205   -3.0394    1.0046 C3        1 UNL         0.0000 
     22 C           0.8699   -3.6361    0.5926 C3        1 UNL         0.0000 
     23 H          -1.2099    2.2634   -2.3066 H1        1 UNL         0.0000 
     24 H           1.4494   -3.0865    1.3460 H1        1 UNL         0.0000 
     25 H          -2.4047   -3.6583    0.3097 H1        1 UNL         0.0000 
     26 H           0.3674   -0.8216   -4.3019 H1        1 UNL         0.0000 
     27 C           0.0165   -4.6997    1.3185 C3        1 UNL         0.0000 
     28 H          -0.3802   -5.4139    0.5846 H1        1 UNL         0.0000 
     29 H           0.6349   -5.2732    2.0176 H1        1 UNL         0.0000 
     30 C          -1.1378   -3.9795    2.0250 C3        1 UNL         0.0000 
     31 H          -0.7523   -3.3859    2.8649 H1        1 UNL         0.0000 
     32 H          -1.8686   -4.6808    2.4411 H1        1 UNL         0.0000 
     33 C           0.2730    1.3297   -4.4552 C3        1 UNL         0.0000 
     34 H           0.7987    2.1876   -4.0146 H1        1 UNL         0.0000 
     35 H           0.5996    1.2608   -5.4981 H1        1 UNL         0.0000 
     36 C          -1.2428    1.5340   -4.3347 C3        1 UNL         0.0000 
     37 H          -1.5544    2.5124   -4.7154 H1        1 UNL         0.0000 
     38 H          -1.7775    0.7780   -4.9251 H1        1 UNL         0.0000 
     39 C          -3.1083    1.2863   -2.5450 C3        1 UNL         0.0000 
     40 H          -3.3032    1.1687   -1.4742 H1        1 UNL         0.0000 
     41 H          -3.6149    2.2002   -2.8713 H1        1 UNL         0.0000 
     42 H          -3.5705    0.4488   -3.0773 H1        1 UNL         0.0000 
     43 C           2.1596   -0.0697   -3.3946 C3        1 UNL         0.0000 
     44 H           2.4201   -0.9876   -2.8646 H1        1 UNL         0.0000 
     45 H           2.7196   -0.0605   -4.3357 H1        1 UNL         0.0000 
     46 H           2.5210    0.7747   -2.7997 H1        1 UNL         0.0000 
     47 C          -2.7397   -1.9942    1.6428 C3        1 UNL         0.0000 
     48 H          -3.2670   -1.3981    0.8924 H1        1 UNL         0.0000 
     49 H          -3.4963   -2.4955    2.2562 H1        1 UNL         0.0000 
     50 H          -2.1785   -1.3088    2.2834 H1        1 UNL         0.0000 
     51 C           1.8402   -4.2003   -0.4507 C3        1 UNL         0.0000 
     52 H           2.4484   -3.4204   -0.9166 H1        1 UNL         0.0000 
     53 H           2.5287   -4.9001    0.0351 H1        1 UNL         0.0000 
     54 H           1.3145   -4.7572   -1.2332 H1        1 UNL         0.0000 
     55 H           0.1780   -2.9789   -2.3147 H1        1 UNL         0.0000 
     56 H          -1.3696   -3.6980   -1.8745 H1        1 UNL         0.0000 
     57 H          -2.4903   -1.4599   -2.0324 H1        1 UNL         0.0000 
     58 H          -1.6487   -1.7924   -3.5488 H1        1 UNL         0.0000 
@<TRIPOS>BOND
     1    1   13 1    
     2    1   18 1    
     3    1   17 1    
     4    1    5 nc   
     5    1    2 nc   
     6    1   14 1    
     7    2    3 2    
     8    3    4 am   BACKBONE|DICT|INTERRES
     9    3   12 1    
    10    4    5 1    
    11    4   11 1    
    12    5    7 1    
    13    5    6 2    
    14    6   10 1    
    15    6    9 1    
    16    6   18 nc   
    17    7    8 3    
    18   13   20 1    
    19   13   19 1    
    20   13   15 1    
    21   14   16 1    
    22   14   22 1    
    23   14   21 1    
    24   15   57 1    
    25   15   58 1    
    26   15   16 1    
    27   16   55 1    
    28   16   56 1    
    29   19   36 1    
    30   19   39 1    
    31   19   23 1    
    32   20   33 1    
    33   20   26 1    
    34   20   43 1    
    35   21   25 1    
    36   21   47 1    
    37   21   30 1    
    38   22   51 1    
    39   22   24 1    
    40   22   27 1    
    41   27   28 1    
    42   27   29 1    
    43   27   30 1    
    44   30   32 1    
    45   30   31 1    
    46   33   35 1    
    47   33   36 1    
    48   33   34 1    
    49   36   38 1    
    50   36   37 1    
    51   39   42 1    
    52   39   41 1    
    53   39   40 1    
    54   43   45 1    
    55   43   44 1    
    56   43   46 1    
    57   47   48 1    
    58   47   50 1    
    59   47   49 1    
    60   51   54 1    
    61   51   52 1    
    62   51   53 1    
@<TRIPOS>SUBSTRUCTURE
     1 UNL         1 GROUP             0       ****    0 ROOT    
