@<TRIPOS>MOLECULE
1 ZDMP from JCTC SI
36   38    1
SMALL
USER_CHARGES


@<TRIPOS>ATOM
      1 RH          0.0000    0.0000    0.0000 RH        1 UNL         0.0000 
      2 O           0.0000    0.0000    2.2155 O2        1 UNL         0.0000 
      3 C           1.1328    0.0000    2.7331 C2        1 UNL         0.0000 
      4 N           2.2649    0.0844    2.0177 N2        1 UNL         0.0000 
      5 C           2.2199    0.3316    0.5970 C2        1 UNL         0.0000 
      6 C           1.6854    1.5730    0.1530 C2        1 UNL         0.0000 
      7 C           3.0661   -0.4839   -0.2107 C1        1 UNL         0.0000 
      8 N           3.7482   -1.1674   -0.8649 N1        1 UNL         0.0000 
      9 H           1.5432    2.3474    0.9008 H1        1 UNL         0.0000 
     10 H           1.9605    1.9304   -0.8325 H1        1 UNL         0.0000 
     11 H           3.1596    0.0722    2.4954 H3        1 UNL         0.0000 
     12 H           1.2523   -0.0753    3.8196 H1        1 UNL         0.0000 
     13 P          -0.2565   -0.1286   -2.2596 PX        1 UNL         0.0000 
     14 P          -0.3227   -2.3535   -0.0024 PX        1 UNL         0.0000 
     15 C          -0.7066   -1.8522   -2.6770 C2        1 UNL         0.0000 
     16 C          -0.7391   -2.7936   -1.7282 C2        1 UNL         0.0000 
     17 H          -1.5569    0.1072   -0.0936 HX        1 UNL         0.0000 
     18 H           0.0179    1.6327   -0.0936 HX        1 UNL         0.0000 
     19 C          -1.5737    0.9069   -3.0066 C3        1 UNL         0.0000 
     20 C           1.2302    0.2170   -3.2867 C3        1 UNL         0.0000 
     21 C          -1.7346   -2.9372    1.0172 C3        1 UNL         0.0000 
     22 C           1.0613   -3.4867    0.4361 C3        1 UNL         0.0000 
     23 H          -1.3377    1.9613   -2.8402 H1        1 UNL         0.0000 
     24 H           1.0226   -0.0264   -4.3334 H1        1 UNL         0.0000 
     25 H          -1.8836   -4.0153    0.9083 H1        1 UNL         0.0000 
     26 H           1.2864   -3.3789    1.5012 H1        1 UNL         0.0000 
     27 H          -0.9348   -2.0829   -3.7177 H1        1 UNL         0.0000 
     28 H          -0.9944   -3.8258   -1.9675 H1        1 UNL         0.0000 
     29 H           1.9524   -3.2266   -0.1402 H1        1 UNL         0.0000 
     30 H           0.7890   -4.5282    0.2403 H1        1 UNL         0.0000 
     31 H          -1.5272   -2.7054    2.0654 H1        1 UNL         0.0000 
     32 H          -2.6423   -2.4069    0.7220 H1        1 UNL         0.0000 
     33 H          -2.5293    0.6866   -2.5271 H1        1 UNL         0.0000 
     34 H          -1.6465    0.7208   -4.0823 H1        1 UNL         0.0000 
     35 H           1.4842    1.2792   -3.2252 H1        1 UNL         0.0000 
     36 H           2.0785   -0.3765   -2.9386 H1        1 UNL         0.0000 
@<TRIPOS>BOND
     1    1   13 1    
     2    1   18 1    
     3    1   17 1    
     4    1   14 1    
     5    1    2 nc   
     6    1    5 nc   
     7    2    3 2    
     8    3    4 am   BACKBONE|DICT|INTERRES
     9    3   12 1    
    10    4    5 1    
    11    4   11 1    
    12    5    7 1    
    13    5    6 2    
    14    6   10 1    
    15    6    9 1    
    16    6   18 nc   
    17    7    8 3    
    18   13   20 1    
    19   13   19 1    
    20   13   15 1    
    21   14   16 1    
    22   14   22 1    
    23   14   21 1    
    24   15   27 1    
    25   15   16 2    
    26   16   28 1    
    27   19   34 1    
    28   19   23 1    
    29   19   33 1    
    30   20   24 1    
    31   20   35 1    
    32   20   36 1    
    33   21   32 1    
    34   21   25 1    
    35   21   31 1    
    36   22   29 1    
    37   22   30 1    
    38   22   26 1    
@<TRIPOS>SUBSTRUCTURE
     1 UNL         1 GROUP             0       ****    0 ROOT    
@<TRIPOS>MOLECULE
2 DMPE Conformation 1 from JCTC SI
38   40    1
SMALL
USER_CHARGES


@<TRIPOS>ATOM
      1 RH          0.0000    0.0000    0.0000 RH        1 UNL         0.0000 
      2 O           0.0000    0.0000    2.2203 O2        1 UNL         0.0000 
      3 C           1.1357    0.0000    2.7315 C2        1 UNL         0.0000 
      4 N           2.2646    0.0859    2.0101 N2        1 UNL         0.0000 
      5 C           2.2081    0.3513    0.5935 C2        1 UNL         0.0000 
      6 C           1.6526    1.5914    0.1677 C2        1 UNL         0.0000 
      7 C           3.0514   -0.4378   -0.2424 C1        1 UNL         0.0000 
      8 N           3.7213   -1.0904   -0.9400 N1        1 UNL         0.0000 
      9 H           1.4930    2.3502    0.9278 H1        1 UNL         0.0000 
     10 H           1.9259    1.9706   -0.8098 H1        1 UNL         0.0000 
     11 H           3.1610    0.0860    2.4847 H3        1 UNL         0.0000 
     12 H           1.2618   -0.0771    3.8173 H1        1 UNL         0.0000 
     13 P          -0.1789   -0.1461   -2.2732 PX        1 UNL         0.0000 
     14 P          -0.3222   -2.3571    0.0258 PX        1 UNL         0.0000 
     15 C          -0.1631   -1.9516   -2.7244 C3        1 UNL         0.0000 
     16 C          -0.9161   -2.7914   -1.6813 C3        1 UNL         0.0000 
     17 H          -1.5591    0.0792   -0.1053 HX        1 UNL         0.0000 
     18 H          -0.0255    1.6310   -0.1107 HX        1 UNL         0.0000 
     19 C          -1.7114    0.5528   -3.0008 C3        1 UNL         0.0000 
     20 C           1.1751    0.5937   -3.2692 C3        1 UNL         0.0000 
     21 C          -1.6116   -2.9525    1.1868 C3        1 UNL         0.0000 
     22 C           1.1283   -3.4476    0.3321 C3        1 UNL         0.0000 
     23 H          -1.7698    1.6178   -2.7626 H1        1 UNL         0.0000 
     24 H           1.0321    0.3432   -4.3251 H1        1 UNL         0.0000 
     25 H          -1.7687   -4.0304    1.0862 H1        1 UNL         0.0000 
     26 H           1.4740   -3.3070    1.3599 H1        1 UNL         0.0000 
     27 H           1.9495   -3.1862   -0.3402 H1        1 UNL         0.0000 
     28 H           0.8597   -4.4993    0.1930 H1        1 UNL         0.0000 
     29 H          -1.3010   -2.7270    2.2101 H1        1 UNL         0.0000 
     30 H          -2.5482   -2.4242    0.9935 H1        1 UNL         0.0000 
     31 H          -2.5862    0.0613   -2.5696 H1        1 UNL         0.0000 
     32 H          -1.7147    0.4234   -4.0874 H1        1 UNL         0.0000 
     33 H           1.1637    1.6825   -3.1698 H1        1 UNL         0.0000 
     34 H           2.1432    0.2080   -2.9403 H1        1 UNL         0.0000 
     35 H          -0.5859   -2.0819   -3.7268 H1        1 UNL         0.0000 
     36 H           0.8903   -2.2502   -2.7740 H1        1 UNL         0.0000 
     37 H          -0.7894   -3.8621   -1.8732 H1        1 UNL         0.0000 
     38 H          -1.9906   -2.5794   -1.7127 H1        1 UNL         0.0000 
@<TRIPOS>BOND
     1    1   13 1    
     2    1   18 1    
     3    1   17 1    
     4    1    5 nc   
     5    1    2 nc   
     6    1   14 1    
     7    2    3 2    
     8    3    4 am   BACKBONE|DICT|INTERRES
     9    3   12 1    
    10    4    5 1    
    11    4   11 1    
    12    5    7 1    
    13    5    6 2    
    14    6   10 1    
    15    6    9 1    
    16    6   18 nc   
    17    7    8 3    
    18   13   20 1    
    19   13   19 1    
    20   13   15 1    
    21   14   16 1    
    22   14   22 1    
    23   14   21 1    
    24   15   35 1    
    25   15   36 1    
    26   15   16 1    
    27   16   37 1    
    28   16   38 1    
    29   19   32 1    
    30   19   23 1    
    31   19   31 1    
    32   20   24 1    
    33   20   33 1    
    34   20   34 1    
    35   21   30 1    
    36   21   25 1    
    37   21   29 1    
    38   22   27 1    
    39   22   28 1    
    40   22   26 1    
@<TRIPOS>SUBSTRUCTURE
     1 UNL         1 GROUP             0       ****    0 ROOT    
@<TRIPOS>MOLECULE
3 DMPE Conformation 2 from JCTC SI
38   40    1
SMALL
USER_CHARGES


@<TRIPOS>ATOM
      1 RH          0.0000    0.0000    0.0000 RH        1 UNL         0.0000 
      2 O           0.0000    0.0000    2.2228 O2        1 UNL         0.0000 
      3 C           1.1332    0.0000    2.7375 C2        1 UNL         0.0000 
      4 N           2.2643    0.0769    2.0186 N2        1 UNL         0.0000 
      5 C           2.2167    0.3100    0.5956 C2        1 UNL         0.0000 
      6 C           1.6964    1.5544    0.1405 C2        1 UNL         0.0000 
      7 C           3.0473   -0.5280   -0.2054 C1        1 UNL         0.0000 
      8 N           3.7151   -1.2333   -0.8514 N1        1 UNL         0.0000 
      9 H           1.5691    2.3377    0.8818 H1        1 UNL         0.0000 
     10 H           1.9734    1.9002   -0.8488 H1        1 UNL         0.0000 
     11 H           3.1601    0.0657    2.4942 H3        1 UNL         0.0000 
     12 H           1.2566   -0.0683    3.8243 H1        1 UNL         0.0000 
     13 P          -0.2879   -0.1222   -2.2585 PX        1 UNL         0.0000 
     14 P          -0.3121   -2.3629    0.0051 PX        1 UNL         0.0000 
     15 C          -1.0833   -1.7614   -2.6211 C3        1 UNL         0.0000 
     16 C          -0.4485   -2.8786   -1.7787 C3        1 UNL         0.0000 
     17 H          -1.5585    0.1159   -0.0982 HX        1 UNL         0.0000 
     18 H           0.0230    1.6327   -0.0907 HX        1 UNL         0.0000 
     19 C          -1.3757    1.1375   -3.0249 C3        1 UNL         0.0000 
     20 C           1.2473   -0.0830   -3.2698 C3        1 UNL         0.0000 
     21 C          -1.8733   -2.8807    0.8228 C3        1 UNL         0.0000 
     22 C           0.9722   -3.4722    0.7131 C3        1 UNL         0.0000 
     23 H          -0.9307    2.1279   -2.8981 H1        1 UNL         0.0000 
     24 H           1.0044   -0.2766   -4.3195 H1        1 UNL         0.0000 
     25 H          -2.0010   -3.9664    0.7802 H1        1 UNL         0.0000 
     26 H           1.0419   -3.3071    1.7917 H1        1 UNL         0.0000 
     27 H           1.9421   -3.2540    0.2587 H1        1 UNL         0.0000 
     28 H           0.7166   -4.5217    0.5369 H1        1 UNL         0.0000 
     29 H          -1.8482   -2.5595    1.8675 H1        1 UNL         0.0000 
     30 H          -2.7237   -2.3921    0.3414 H1        1 UNL         0.0000 
     31 H          -2.3487    1.1330   -2.5291 H1        1 UNL         0.0000 
     32 H          -1.5026    0.9379   -4.0933 H1        1 UNL         0.0000 
     33 H           1.7140    0.9037   -3.2017 H1        1 UNL         0.0000 
     34 H           1.9664   -0.8255   -2.9165 H1        1 UNL         0.0000 
     35 H          -2.1471   -1.6506   -2.3839 H1        1 UNL         0.0000 
     36 H          -1.0082   -1.9780   -3.6926 H1        1 UNL         0.0000 
     37 H           0.5697   -3.0899   -2.1244 H1        1 UNL         0.0000 
     38 H          -1.0185   -3.8097   -1.8652 H1        1 UNL         0.0000 
@<TRIPOS>BOND
     1    1   13 1    
     2    1   18 1    
     3    1   17 1    
     4    1    5 nc   
     5    1    2 nc   
     6    1   14 1    
     7    2    3 2    
     8    3    4 am   BACKBONE|DICT|INTERRES
     9    3   12 1    
    10    4    5 1    
    11    4   11 1    
    12    5    7 1    
    13    5    6 2    
    14    6   10 1    
    15    6    9 1    
    16    6   18 nc   
    17    7    8 3    
    18   13   20 1    
    19   13   19 1    
    20   13   15 1    
    21   14   16 1    
    22   14   22 1    
    23   14   21 1    
    24   15   35 1    
    25   15   36 1    
    26   15   16 1    
    27   16   37 1    
    28   16   38 1    
    29   19   32 1    
    30   19   23 1    
    31   19   31 1    
    32   20   24 1    
    33   20   33 1    
    34   20   34 1    
    35   21   30 1    
    36   21   25 1    
    37   21   29 1    
    38   22   27 1    
    39   22   28 1    
    40   22   26 1    
@<TRIPOS>SUBSTRUCTURE
     1 UNL         1 GROUP             0       ****    0 ROOT    
@<TRIPOS>MOLECULE
4 (R,R)-Me-DuPHOS pro-R from JCTC SI
62   67    1
SMALL
USER_CHARGES


@<TRIPOS>ATOM
      1 RH          0.0000    0.0000    0.0000 RH        1 UNL         0.0000 
      2 O           0.0000    0.0000    2.2298 O2        1 UNL         0.0000 
      3 C           1.1304    0.0000    2.7545 C2        1 UNL         0.0000 
      4 N           2.2647   -0.1131    2.0501 N2        1 UNL         0.0000 
      5 C           2.2311   -0.3941    0.6355 C2        1 UNL         0.0000 
      6 C           1.6215   -1.6075    0.2147 C2        1 UNL         0.0000 
      7 C           3.2193    0.2631   -0.1527 C1        1 UNL         0.0000 
      8 N           4.0518    0.7773   -0.7865 N1        1 UNL         0.0000 
      9 H           1.4011   -2.3476    0.9780 H1        1 UNL         0.0000 
     10 H           1.8985   -2.0120   -0.7521 H1        1 UNL         0.0000 
     11 H           3.1561   -0.0984    2.5335 H3        1 UNL         0.0000 
     12 H           1.2456    0.1008    3.8395 H1        1 UNL         0.0000 
     13 P          -0.2385    0.1390   -2.2661 PX        1 UNL         0.0000 
     14 P          -0.5582    2.3241    0.0408 PX        1 UNL         0.0000 
     15 C          -1.0770    1.7335   -2.6518 C2        1 UNL         0.0000 
     16 C          -1.1951    2.7104   -1.6421 C2        1 UNL         0.0000 
     17 H          -1.5546   -0.1218   -0.1104 HX        1 UNL         0.0000 
     18 H          -0.0920   -1.6074   -0.0906 HX        1 UNL         0.0000 
     19 C          -1.1456   -1.2209   -3.2021 C3        1 UNL         0.0000 
     20 C           1.3385    0.0391   -3.2998 C3        1 UNL         0.0000 
     21 C          -1.9018    2.6471    1.3202 C3        1 UNL         0.0000 
     22 C           0.5033    3.8043    0.5503 C3        1 UNL         0.0000 
     23 C          -1.7953    3.9418   -1.9469 C2        1 UNL         0.0000 
     24 H          -1.8935    4.7056   -1.1815 H1        1 UNL         0.0000 
     25 C          -1.5618    2.0096   -3.9401 C2        1 UNL         0.0000 
     26 H          -1.4686    1.2758   -4.7345 H1        1 UNL         0.0000 
     27 C          -2.2837    4.2002   -3.2261 C2        1 UNL         0.0000 
     28 H          -2.7559    5.1537   -3.4424 H1        1 UNL         0.0000 
     29 C          -2.1663    3.2326   -4.2242 C2        1 UNL         0.0000 
     30 H          -2.5420    3.4291   -5.2237 H1        1 UNL         0.0000 
     31 C          -0.0835    4.2382    1.9127 C3        1 UNL         0.0000 
     32 H           0.2066    5.2701    2.1379 H1        1 UNL         0.0000 
     33 H           0.3367    3.6091    2.7090 H1        1 UNL         0.0000 
     34 C          -1.6075    4.0622    1.8623 C3        1 UNL         0.0000 
     35 H          -2.0668    4.1961    2.8478 H1        1 UNL         0.0000 
     36 H          -2.0534    4.8184    1.2025 H1        1 UNL         0.0000 
     37 C           0.9484   -0.8476   -4.5041 C3        1 UNL         0.0000 
     38 H           1.8451   -1.2829   -4.9579 H1        1 UNL         0.0000 
     39 H           0.4706   -0.2316   -5.2773 H1        1 UNL         0.0000 
     40 C          -0.0289   -1.9222   -4.0091 C3        1 UNL         0.0000 
     41 H           0.4967   -2.6404   -3.3649 H1        1 UNL         0.0000 
     42 H          -0.4620   -2.4975   -4.8340 H1        1 UNL         0.0000 
     43 C          -3.3433    2.4019    0.8704 C3        1 UNL         0.0000 
     44 H          -3.4884    1.3742    0.5240 H1        1 UNL         0.0000 
     45 H          -3.6433    3.0793    0.0658 H1        1 UNL         0.0000 
     46 H          -4.0226    2.5633    1.7139 H1        1 UNL         0.0000 
     47 C           2.0141    3.5724    0.5556 C3        1 UNL         0.0000 
     48 H           2.2954    2.7886    1.2657 H1        1 UNL         0.0000 
     49 H           2.5302    4.4913    0.8541 H1        1 UNL         0.0000 
     50 H           2.3951    3.2836   -0.4272 H1        1 UNL         0.0000 
     51 C           1.9902    1.3754   -3.6638 C3        1 UNL         0.0000 
     52 H           2.2947    1.9347   -2.7757 H1        1 UNL         0.0000 
     53 H           1.3229    2.0024   -4.2619 H1        1 UNL         0.0000 
     54 H           2.8943    1.1884   -4.2519 H1        1 UNL         0.0000 
     55 C          -2.0197   -2.1606   -2.3715 C3        1 UNL         0.0000 
     56 H          -2.7981   -1.6212   -1.8251 H1        1 UNL         0.0000 
     57 H          -1.4277   -2.7222   -1.6426 H1        1 UNL         0.0000 
     58 H          -2.5113   -2.8816   -3.0331 H1        1 UNL         0.0000 
     59 H          -1.6543    1.9199    2.1037 H1        1 UNL         0.0000 
     60 H           2.0399   -0.5230   -2.6713 H1        1 UNL         0.0000 
     61 H          -1.7909   -0.6834   -3.9076 H1        1 UNL         0.0000 
     62 H           0.2675    4.5783   -0.1912 H1        1 UNL         0.0000 
@<TRIPOS>BOND
     1    1   13 1    
     2    1   17 1    
     3    1   18 1    
     4    1    5 nc   
     5    1    2 nc   
     6    1   14 1    
     7    2    3 2    
     8    3    4 am   BACKBONE|DICT|INTERRES
     9    3   12 1    
    10    4    5 1    
    11    4   11 1    
    12    5    7 1    
    13    5    6 2    
    14    6   10 1    
    15    6    9 1    
    16    6   18 nc   
    17    7    8 3    
    18   13   20 1    
    19   13   19 1    
    20   13   15 1    
    21   14   16 1    
    22   14   22 1    
    23   14   21 1    
    24   15   25 ar   
    25   15   16 ar   
    26   16   23 ar   
    27   19   40 1    
    28   19   61 1    
    29   19   55 1    
    30   20   37 1    
    31   20   51 1    
    32   20   60 1    
    33   21   43 1    
    34   21   34 1    
    35   21   59 1    
    36   22   62 1    
    37   22   47 1    
    38   22   31 1    
    39   23   27 ar   
    40   23   24 1    
    41   25   26 1    
    42   25   29 ar   
    43   27   29 ar   
    44   27   28 1    
    45   29   30 1    
    46   31   34 1    
    47   31   32 1    
    48   31   33 1    
    49   34   36 1    
    50   34   35 1    
    51   37   39 1    
    52   37   38 1    
    53   37   40 1    
    54   40   42 1    
    55   40   41 1    
    56   43   45 1    
    57   43   44 1    
    58   43   46 1    
    59   47   50 1    
    60   47   49 1    
    61   47   48 1    
    62   51   53 1    
    63   51   54 1    
    64   51   52 1    
    65   55   58 1    
    66   55   56 1    
    67   55   57 1    
@<TRIPOS>SUBSTRUCTURE
     1 UNL         1 GROUP             0       ****    0 ROOT    
@<TRIPOS>MOLECULE
5 (R,R)-Me-DuPHOS pro-S from JCTC SI
62   67    1
SMALL
USER_CHARGES


@<TRIPOS>ATOM
      1 RH          0.0000    0.0000    0.0000 RH        1 UNL         0.0000 
      2 O           0.0000    0.0000    2.2259 O2        1 UNL         0.0000 
      3 C           1.1232    0.0000    2.7630 C2        1 UNL         0.0000 
      4 N           2.2634    0.0956    2.0659 N2        1 UNL         0.0000 
      5 C           2.2405    0.3497    0.6452 C2        1 UNL         0.0000 
      6 C           1.6799    1.5776    0.2036 C2        1 UNL         0.0000 
      7 C           3.1739   -0.4178   -0.1097 C1        1 UNL         0.0000 
      8 N           3.9626   -1.0598   -0.6797 N1        1 UNL         0.0000 
      9 H           1.5058    2.3400    0.9567 H1        1 UNL         0.0000 
     10 H           1.9549    1.9501   -0.7752 H1        1 UNL         0.0000 
     11 H           3.1525    0.0703    2.5530 H3        1 UNL         0.0000 
     12 H           1.2264   -0.0836    3.8507 H1        1 UNL         0.0000 
     13 P          -0.4589   -0.0203   -2.2522 PX        1 UNL         0.0000 
     14 P          -0.3486   -2.3620   -0.0537 PX        1 UNL         0.0000 
     15 C          -1.0662   -1.7059   -2.6852 C2        1 UNL         0.0000 
     16 C          -1.0204   -2.7360   -1.7249 C2        1 UNL         0.0000 
     17 H          -1.5560    0.0983   -0.0476 HX        1 UNL         0.0000 
     18 H          -0.0121    1.6262   -0.0439 HX        1 UNL         0.0000 
     19 C          -1.7357    1.2748   -2.7490 C3        1 UNL         0.0000 
     20 C           0.7440    0.4295   -3.6472 C3        1 UNL         0.0000 
     21 C          -1.5367   -3.1475    1.1828 C3        1 UNL         0.0000 
     22 C           1.0804   -3.5432    0.3232 C3        1 UNL         0.0000 
     23 H          -1.5486    2.0686   -2.0158 H1        1 UNL         0.0000 
     24 H           1.7513   -2.9336    0.9419 H1        1 UNL         0.0000 
     25 H          -2.1376   -3.8433    0.5835 H1        1 UNL         0.0000 
     26 H           0.4969   -0.3162   -4.4137 H1        1 UNL         0.0000 
     27 C          -1.4821   -4.0162   -2.0701 C2        1 UNL         0.0000 
     28 H          -1.4485   -4.8232   -1.3446 H1        1 UNL         0.0000 
     29 C          -1.5701   -1.9802   -3.9672 C2        1 UNL         0.0000 
     30 H          -1.6155   -1.1986   -4.7192 H1        1 UNL         0.0000 
     31 C          -1.9847   -4.2746   -3.3432 C2        1 UNL         0.0000 
     32 H          -2.3387   -5.2701   -3.5933 H1        1 UNL         0.0000 
     33 C          -2.0303   -3.2538   -4.2932 C2        1 UNL         0.0000 
     34 H          -2.4245   -3.4478   -5.2862 H1        1 UNL         0.0000 
     35 C           0.4588   -4.6377    1.2193 C3        1 UNL         0.0000 
     36 H           0.0046   -5.4160    0.5916 H1        1 UNL         0.0000 
     37 H           1.2367   -5.1291    1.8141 H1        1 UNL         0.0000 
     38 C          -0.6153   -3.9828    2.0990 C3        1 UNL         0.0000 
     39 H          -0.1451   -3.3280    2.8451 H1        1 UNL         0.0000 
     40 H          -1.2022   -4.7234    2.6527 H1        1 UNL         0.0000 
     41 C           0.2493    1.8030   -4.1482 C3        1 UNL         0.0000 
     42 H           0.6261    2.5984   -3.4910 H1        1 UNL         0.0000 
     43 H           0.6498    2.0032   -5.1479 H1        1 UNL         0.0000 
     44 C          -1.2858    1.7898   -4.1320 C3        1 UNL         0.0000 
     45 H          -1.7058    2.7837   -4.3197 H1        1 UNL         0.0000 
     46 H          -1.6661    1.1337   -4.9257 H1        1 UNL         0.0000 
     47 C          -3.2024    0.8568   -2.6389 C3        1 UNL         0.0000 
     48 H          -3.4550    0.5372   -1.6230 H1        1 UNL         0.0000 
     49 H          -3.8448    1.7082   -2.8854 H1        1 UNL         0.0000 
     50 H          -3.4497    0.0414   -3.3242 H1        1 UNL         0.0000 
     51 C           2.2445    0.3433   -3.3776 C3        1 UNL         0.0000 
     52 H           2.5491   -0.6366   -3.0047 H1        1 UNL         0.0000 
     53 H           2.7902    0.5270   -4.3092 H1        1 UNL         0.0000 
     54 H           2.5792    1.0961   -2.6585 H1        1 UNL         0.0000 
     55 C          -2.4804   -2.1889    1.9128 C3        1 UNL         0.0000 
     56 H          -3.1385   -1.6618    1.2158 H1        1 UNL         0.0000 
     57 H          -3.1159   -2.7545    2.6031 H1        1 UNL         0.0000 
     58 H          -1.9277   -1.4419    2.4869 H1        1 UNL         0.0000 
     59 C           1.8752   -4.0590   -0.8795 C3        1 UNL         0.0000 
     60 H           2.3544   -3.2450   -1.4293 H1        1 UNL         0.0000 
     61 H           2.6707   -4.7259   -0.5302 H1        1 UNL         0.0000 
     62 H           1.2456   -4.6255   -1.5715 H1        1 UNL         0.0000 
@<TRIPOS>BOND
     1    1   13 1    
     2    1   17 1    
     3    1   18 1    
     4    1    2 nc   
     5    1   14 1    
     6    1    5 nc   
     7    2    3 2    
     8    3    4 am   BACKBONE|DICT|INTERRES
     9    3   12 1    
    10    4    5 1    
    11    4   11 1    
    12    5    7 1    
    13    5    6 2    
    14    6   10 1    
    15    6    9 1    
    16    6   18 nc   
    17    7    8 3    
    18   13   20 1    
    19   13   19 1    
    20   13   15 1    
    21   14   16 1    
    22   14   22 1    
    23   14   21 1    
    24   15   29 ar   
    25   15   16 ar   
    26   16   27 ar   
    27   19   44 1    
    28   19   47 1    
    29   19   23 1    
    30   20   26 1    
    31   20   41 1    
    32   20   51 1    
    33   21   25 1    
    34   21   55 1    
    35   21   38 1    
    36   22   59 1    
    37   22   24 1    
    38   22   35 1    
    39   27   31 ar   
    40   27   28 1    
    41   29   30 1    
    42   29   33 ar   
    43   31   33 ar   
    44   31   32 1    
    45   33   34 1    
    46   35   36 1    
    47   35   37 1    
    48   35   38 1    
    49   38   40 1    
    50   38   39 1    
    51   41   43 1    
    52   41   44 1    
    53   41   42 1    
    54   44   46 1    
    55   44   45 1    
    56   47   50 1    
    57   47   49 1    
    58   47   48 1    
    59   51   53 1    
    60   51   52 1    
    61   51   54 1    
    62   55   56 1    
    63   55   58 1    
    64   55   57 1    
    65   59   62 1    
    66   59   60 1    
    67   59   61 1    
@<TRIPOS>SUBSTRUCTURE
     1 UNL         1 GROUP             0       ****    0 ROOT    
@<TRIPOS>MOLECULE
6 (R,R)-Me-BPE pro-R Conformation 1 from JCTC SI
58   62    1
SMALL
USER_CHARGES


@<TRIPOS>ATOM
      1 RH          0.0000    0.0000    0.0000 RH        1 UNL         0.0000 
      2 O           0.0000    0.0000    2.2288 O2        1 UNL         0.0000 
      3 C           1.1317    0.0000    2.7494 C2        1 UNL         0.0000 
      4 N           2.2657   -0.0925    2.0401 N2        1 UNL         0.0000 
      5 C           2.2313   -0.3431    0.6202 C2        1 UNL         0.0000 
      6 C           1.6613   -1.5685    0.1766 C2        1 UNL         0.0000 
      7 C           3.1774    0.3766   -0.1653 C1        1 UNL         0.0000 
      8 N           3.9712    0.9481   -0.8000 N1        1 UNL         0.0000 
      9 H           1.4775   -2.3330    0.9256 H1        1 UNL         0.0000 
     10 H           1.9429   -1.9418   -0.8015 H1        1 UNL         0.0000 
     11 H           3.1582   -0.0734    2.5214 H3        1 UNL         0.0000 
     12 H           1.2499    0.0834    3.8356 H1        1 UNL         0.0000 
     13 P          -0.2708    0.1302   -2.2679 PX        1 UNL         0.0000 
     14 P          -0.5713    2.3345    0.0546 PX        1 UNL         0.0000 
     15 C          -1.3323    1.6278   -2.5848 C3        1 UNL         0.0000 
     16 C          -0.9442    2.8254   -1.7083 C3        1 UNL         0.0000 
     17 H          -1.5539   -0.1555   -0.1072 HX        1 UNL         0.0000 
     18 H          -0.0433   -1.6103   -0.0983 HX        1 UNL         0.0000 
     19 C          -1.0921   -1.2549   -3.2434 C3        1 UNL         0.0000 
     20 C           1.2638    0.2270   -3.3495 C3        1 UNL         0.0000 
     21 C          -2.0818    2.6258    1.1312 C3        1 UNL         0.0000 
     22 C           0.3951    3.8089    0.7327 C3        1 UNL         0.0000 
     23 C          -0.3963    4.2375    1.9883 C3        1 UNL         0.0000 
     24 H          -0.1534    5.2714    2.2555 H1        1 UNL         0.0000 
     25 H          -0.1022    3.6095    2.8400 H1        1 UNL         0.0000 
     26 C          -1.8909    4.0498    1.6958 C3        1 UNL         0.0000 
     27 H          -2.5059    4.1932    2.5907 H1        1 UNL         0.0000 
     28 H          -2.2244    4.7913    0.9572 H1        1 UNL         0.0000 
     29 C           0.8649   -0.5537   -4.6228 C3        1 UNL         0.0000 
     30 H           1.7600   -0.8532   -5.1780 H1        1 UNL         0.0000 
     31 H           0.2811    0.0969   -5.2880 H1        1 UNL         0.0000 
     32 C           0.0196   -1.7593   -4.1925 C3        1 UNL         0.0000 
     33 H           0.6498   -2.4887   -3.6655 H1        1 UNL         0.0000 
     34 H          -0.4197   -2.2816   -5.0484 H1        1 UNL         0.0000 
     35 C          -3.4412    2.3671    0.4768 C3        1 UNL         0.0000 
     36 H          -3.5345    1.3342    0.1273 H1        1 UNL         0.0000 
     37 H          -3.6255    3.0402   -0.3675 H1        1 UNL         0.0000 
     38 H          -4.2403    2.5367    1.2060 H1        1 UNL         0.0000 
     39 C           1.8914    3.5951    0.9636 C3        1 UNL         0.0000 
     40 H           2.0718    2.8163    1.7114 H1        1 UNL         0.0000 
     41 H           2.3464    4.5202    1.3331 H1        1 UNL         0.0000 
     42 H           2.4190    3.3085    0.0501 H1        1 UNL         0.0000 
     43 C           1.8324    1.6255   -3.6094 C3        1 UNL         0.0000 
     44 H           2.1745    2.1060   -2.6893 H1        1 UNL         0.0000 
     45 H           1.1061    2.2758   -4.1085 H1        1 UNL         0.0000 
     46 H           2.7030    1.5455   -4.2685 H1        1 UNL         0.0000 
     47 C          -1.7842   -2.3541   -2.4361 C3        1 UNL         0.0000 
     48 H          -2.5663   -1.9572   -1.7834 H1        1 UNL         0.0000 
     49 H          -1.0718   -2.8995   -1.8092 H1        1 UNL         0.0000 
     50 H          -2.2481   -3.0740   -3.1185 H1        1 UNL         0.0000 
     51 H          -1.9448    1.9064    1.9489 H1        1 UNL         0.0000 
     52 H           2.0225   -0.3556   -2.8117 H1        1 UNL         0.0000 
     53 H          -1.8468   -0.7352   -3.8501 H1        1 UNL         0.0000 
     54 H           0.2634    4.5869   -0.0324 H1        1 UNL         0.0000 
     55 H          -1.2900    1.8865   -3.6489 H1        1 UNL         0.0000 
     56 H          -2.3577    1.3076   -2.3705 H1        1 UNL         0.0000 
     57 H          -1.7245    3.5936   -1.7325 H1        1 UNL         0.0000 
     58 H          -0.0284    3.2907   -2.0874 H1        1 UNL         0.0000 
@<TRIPOS>BOND
     1    1   13 1    
     2    1   17 1    
     3    1   18 1    
     4    1    5 nc   
     5    1    2 nc   
     6    1   14 1    
     7    2    3 2    
     8    3    4 am   BACKBONE|DICT|INTERRES
     9    3   12 1    
    10    4    5 1    
    11    4   11 1    
    12    5    7 1    
    13    5    6 2    
    14    6   10 1    
    15    6    9 1    
    16    6   18 nc   
    17    7    8 3    
    18   13   20 1    
    19   13   19 1    
    20   13   15 1    
    21   14   16 1    
    22   14   22 1    
    23   14   21 1    
    24   15   55 1    
    25   15   56 1    
    26   15   16 1    
    27   16   58 1    
    28   16   57 1    
    29   19   32 1    
    30   19   53 1    
    31   19   47 1    
    32   20   29 1    
    33   20   43 1    
    34   20   52 1    
    35   21   35 1    
    36   21   26 1    
    37   21   51 1    
    38   22   54 1    
    39   22   39 1    
    40   22   23 1    
    41   23   26 1    
    42   23   24 1    
    43   23   25 1    
    44   26   28 1    
    45   26   27 1    
    46   29   31 1    
    47   29   30 1    
    48   29   32 1    
    49   32   34 1    
    50   32   33 1    
    51   35   37 1    
    52   35   36 1    
    53   35   38 1    
    54   39   42 1    
    55   39   41 1    
    56   39   40 1    
    57   43   46 1    
    58   43   45 1    
    59   43   44 1    
    60   47   50 1    
    61   47   49 1    
    62   47   48 1    
@<TRIPOS>SUBSTRUCTURE
     1 UNL         1 GROUP             0       ****    0 ROOT    
@<TRIPOS>MOLECULE
7 (R,R)-Me-BPE pro-R Conformation 2 from JCTC SI
58   62    1
SMALL
USER_CHARGES


@<TRIPOS>ATOM
      1 RH          0.0000    0.0000    0.0000 RH        1 UNL         0.0000 
      2 O           0.0000    0.0000    2.2260 O2        1 UNL         0.0000 
      3 C           1.1318    0.0000    2.7489 C2        1 UNL         0.0000 
      4 N           2.2648   -0.1161    2.0434 N2        1 UNL         0.0000 
      5 C           2.2278   -0.4098    0.6317 C2        1 UNL         0.0000 
      6 C           1.6057   -1.6212    0.2221 C2        1 UNL         0.0000 
      7 C           3.2232    0.2260   -0.1643 C1        1 UNL         0.0000 
      8 N           4.0589    0.7222   -0.8081 N1        1 UNL         0.0000 
      9 H           1.3727   -2.3494    0.9930 H1        1 UNL         0.0000 
     10 H           1.8836   -2.0403   -0.7378 H1        1 UNL         0.0000 
     11 H           3.1570   -0.1033    2.5256 H3        1 UNL         0.0000 
     12 H           1.2483    0.1039    3.8334 H1        1 UNL         0.0000 
     13 P          -0.2294    0.1350   -2.2847 PX        1 UNL         0.0000 
     14 P          -0.5831    2.3318    0.0584 PX        1 UNL         0.0000 
     15 C          -0.6857    1.9026   -2.6882 C3        1 UNL         0.0000 
     16 C          -1.4868    2.5603   -1.5554 C3        1 UNL         0.0000 
     17 H          -1.5553   -0.1034   -0.0928 HX        1 UNL         0.0000 
     18 H          -0.0978   -1.6065   -0.1109 HX        1 UNL         0.0000 
     19 C          -1.4775   -0.9814   -3.1532 C3        1 UNL         0.0000 
     20 C           1.2270   -0.3418   -3.3868 C3        1 UNL         0.0000 
     21 C          -1.7387    2.8009    1.4564 C3        1 UNL         0.0000 
     22 C           0.5337    3.8493    0.2415 C3        1 UNL         0.0000 
     23 C           0.0531    4.5184    1.5527 C3        1 UNL         0.0000 
     24 H           0.3193    5.5807    1.5546 H1        1 UNL         0.0000 
     25 H           0.5737    4.0594    2.4040 H1        1 UNL         0.0000 
     26 C          -1.4591    4.2998    1.6951 C3        1 UNL         0.0000 
     27 H          -1.8244    4.6070    2.6810 H1        1 UNL         0.0000 
     28 H          -2.0010    4.9014    0.9530 H1        1 UNL         0.0000 
     29 C           0.5812   -1.1376   -4.5452 C3        1 UNL         0.0000 
     30 H           1.3286   -1.7777   -5.0256 H1        1 UNL         0.0000 
     31 H           0.2206   -0.4386   -5.3115 H1        1 UNL         0.0000 
     32 C          -0.5944   -1.9426   -3.9804 C3        1 UNL         0.0000 
     33 H          -0.2253   -2.7513   -3.3350 H1        1 UNL         0.0000 
     34 H          -1.1872   -2.4148   -4.7706 H1        1 UNL         0.0000 
     35 C          -3.2126    2.4339    1.2644 C3        1 UNL         0.0000 
     36 H          -3.3448    1.3628    1.0825 H1        1 UNL         0.0000 
     37 H          -3.6671    2.9873    0.4361 H1        1 UNL         0.0000 
     38 H          -3.7752    2.6833    2.1701 H1        1 UNL         0.0000 
     39 C           2.0400    3.5872    0.1973 C3        1 UNL         0.0000 
     40 H           2.3506    2.9111    1.0002 H1        1 UNL         0.0000 
     41 H           2.5855    4.5281    0.3278 H1        1 UNL         0.0000 
     42 H           2.3633    3.1462   -0.7488 H1        1 UNL         0.0000 
     43 C           2.1414    0.8003   -3.8430 C3        1 UNL         0.0000 
     44 H           2.6037    1.3258   -3.0034 H1        1 UNL         0.0000 
     45 H           1.6067    1.5218   -4.4691 H1        1 UNL         0.0000 
     46 H           2.9552    0.3880   -4.4486 H1        1 UNL         0.0000 
     47 C          -2.5173   -1.6843   -2.2805 C3        1 UNL         0.0000 
     48 H          -3.1477   -0.9763   -1.7353 H1        1 UNL         0.0000 
     49 H          -2.0443   -2.3427   -1.5463 H1        1 UNL         0.0000 
     50 H          -3.1713   -2.2950   -2.9119 H1        1 UNL         0.0000 
     51 H          -1.3486    2.2309    2.3093 H1        1 UNL         0.0000 
     52 H           1.8205   -1.0373   -2.7808 H1        1 UNL         0.0000 
     53 H          -1.9946   -0.3110   -3.8536 H1        1 UNL         0.0000 
     54 H           0.2591    4.4990   -0.6003 H1        1 UNL         0.0000 
     55 H           0.2525    2.4432   -2.8502 H1        1 UNL         0.0000 
     56 H          -1.2380    1.9283   -3.6340 H1        1 UNL         0.0000 
     57 H          -2.4686    2.0882   -1.4510 H1        1 UNL         0.0000 
     58 H          -1.6522    3.6221   -1.7664 H1        1 UNL         0.0000 
@<TRIPOS>BOND
     1    1   13 1    
     2    1   17 1    
     3    1   18 1    
     4    1    5 nc   
     5    1    2 nc   
     6    1   14 1    
     7    2    3 2    
     8    3    4 am   BACKBONE|DICT|INTERRES
     9    3   12 1    
    10    4    5 1    
    11    4   11 1    
    12    5    7 1    
    13    5    6 2    
    14    6   10 1    
    15    6    9 1    
    16    6   18 nc   
    17    7    8 3    
    18   13   20 1    
    19   13   19 1    
    20   13   15 1    
    21   14   16 1    
    22   14   22 1    
    23   14   21 1    
    24   15   55 1    
    25   15   56 1    
    26   15   16 1    
    27   16   58 1    
    28   16   57 1    
    29   19   32 1    
    30   19   53 1    
    31   19   47 1    
    32   20   29 1    
    33   20   43 1    
    34   20   52 1    
    35   21   35 1    
    36   21   26 1    
    37   21   51 1    
    38   22   54 1    
    39   22   39 1    
    40   22   23 1    
    41   23   26 1    
    42   23   24 1    
    43   23   25 1    
    44   26   28 1    
    45   26   27 1    
    46   29   31 1    
    47   29   30 1    
    48   29   32 1    
    49   32   34 1    
    50   32   33 1    
    51   35   37 1    
    52   35   36 1    
    53   35   38 1    
    54   39   42 1    
    55   39   41 1    
    56   39   40 1    
    57   43   46 1    
    58   43   45 1    
    59   43   44 1    
    60   47   50 1    
    61   47   49 1    
    62   47   48 1    
@<TRIPOS>SUBSTRUCTURE
     1 UNL         1 GROUP             0       ****    0 ROOT    
@<TRIPOS>MOLECULE
8 (R,R)-Me-BPE pro-S Conformation 1 from JCTC SI
58   62    1
SMALL
USER_CHARGES


@<TRIPOS>ATOM
      1 RH          0.0000    0.0000    0.0000 RH        1 UNL         0.0000 
      2 O           0.0000    0.0000    2.2276 O2        1 UNL         0.0000 
      3 C           1.1285    0.0000    2.7549 C2        1 UNL         0.0000 
      4 N           2.2616    0.1104    2.0478 N2        1 UNL         0.0000 
      5 C           2.2144    0.4059    0.6364 C2        1 UNL         0.0000 
      6 C           1.6148    1.6311    0.2343 C2        1 UNL         0.0000 
      7 C           3.1430   -0.3112   -0.1724 C1        1 UNL         0.0000 
      8 N           3.9162   -0.9034   -0.8139 N1        1 UNL         0.0000 
      9 H           1.4081    2.3581    1.0140 H1        1 UNL         0.0000 
     10 H           1.8910    2.0459   -0.7254 H1        1 UNL         0.0000 
     11 H           3.1550    0.1035    2.5277 H3        1 UNL         0.0000 
     12 H           1.2417   -0.0964    3.8406 H1        1 UNL         0.0000 
     13 P          -0.3754   -0.0832   -2.2778 PX        1 UNL         0.0000 
     14 P          -0.2863   -2.3834    0.0089 PX        1 UNL         0.0000 
     15 C          -0.4359   -1.8881   -2.7565 C3        1 UNL         0.0000 
     16 C          -1.0148   -2.7837   -1.6576 C3        1 UNL         0.0000 
     17 H          -1.5583    0.0459   -0.0597 HX        1 UNL         0.0000 
     18 H          -0.0518    1.6274   -0.0785 HX        1 UNL         0.0000 
     19 C          -1.9619    0.7412   -2.8438 C3        1 UNL         0.0000 
     20 C           0.6836    0.6606   -3.6684 C3        1 UNL         0.0000 
     21 C          -1.4506   -3.2086    1.2376 C3        1 UNL         0.0000 
     22 C           1.1647   -3.5384    0.3532 C3        1 UNL         0.0000 
     23 H          -2.0056    1.6479   -2.2266 H1        1 UNL         0.0000 
     24 H           1.8264   -2.9470    0.9988 H1        1 UNL         0.0000 
     25 H          -2.0501   -3.8912    0.6185 H1        1 UNL         0.0000 
     26 H           0.8024   -0.1960   -4.3461 H1        1 UNL         0.0000 
     27 C           0.5540   -4.6791    1.1986 C3        1 UNL         0.0000 
     28 H           0.0955   -5.4240    0.5344 H1        1 UNL         0.0000 
     29 H           1.3373   -5.1967    1.7629 H1        1 UNL         0.0000 
     30 C          -0.5171   -4.0714    2.1141 C3        1 UNL         0.0000 
     31 H          -0.0463   -3.4427    2.8822 H1        1 UNL         0.0000 
     32 H          -1.0924   -4.8393    2.6420 H1        1 UNL         0.0000 
     33 C          -0.2440    1.6880   -4.3557 C3        1 UNL         0.0000 
     34 H          -0.1805    2.6484   -3.8271 H1        1 UNL         0.0000 
     35 H           0.0928    1.8673   -5.3822 H1        1 UNL         0.0000 
     36 C          -1.6825    1.1602   -4.3007 C3        1 UNL         0.0000 
     37 H          -2.4078    1.9131   -4.6268 H1        1 UNL         0.0000 
     38 H          -1.7978    0.2974   -4.9706 H1        1 UNL         0.0000 
     39 C          -3.2514   -0.0545   -2.6332 C3        1 UNL         0.0000 
     40 H          -3.4127   -0.2972   -1.5782 H1        1 UNL         0.0000 
     41 H          -4.1088    0.5400   -2.9651 H1        1 UNL         0.0000 
     42 H          -3.2575   -0.9844   -3.2119 H1        1 UNL         0.0000 
     43 C           2.0757    1.2061   -3.3485 C3        1 UNL         0.0000 
     44 H           2.7030    0.4868   -2.8174 H1        1 UNL         0.0000 
     45 H           2.5865    1.4581   -4.2839 H1        1 UNL         0.0000 
     46 H           2.0186    2.1306   -2.7650 H1        1 UNL         0.0000 
     47 C          -2.3933   -2.2830    2.0102 C3        1 UNL         0.0000 
     48 H          -3.0581   -1.7291    1.3404 H1        1 UNL         0.0000 
     49 H          -3.0224   -2.8753    2.6832 H1        1 UNL         0.0000 
     50 H          -1.8386   -1.5552    2.6065 H1        1 UNL         0.0000 
     51 C           1.9701   -4.0030   -0.8648 C3        1 UNL         0.0000 
     52 H           2.4571   -3.1694   -1.3775 H1        1 UNL         0.0000 
     53 H           2.7618   -4.6862   -0.5389 H1        1 UNL         0.0000 
     54 H           1.3485   -4.5509   -1.5811 H1        1 UNL         0.0000 
     55 H          -0.8674   -3.8417   -1.8984 H1        1 UNL         0.0000 
     56 H          -2.0937   -2.6237   -1.5577 H1        1 UNL         0.0000 
     57 H          -0.9985   -1.9901   -3.6918 H1        1 UNL         0.0000 
     58 H           0.6000   -2.1722   -2.9739 H1        1 UNL         0.0000 
@<TRIPOS>BOND
     1    1   13 1    
     2    1   18 1    
     3    1   17 1    
     4    1    5 nc   
     5    1    2 nc   
     6    1   14 1    
     7    2    3 2    
     8    3    4 am   BACKBONE|DICT|INTERRES
     9    3   12 1    
    10    4    5 1    
    11    4   11 1    
    12    5    7 1    
    13    5    6 2    
    14    6   10 1    
    15    6    9 1    
    16    6   18 nc   
    17    7    8 3    
    18   13   20 1    
    19   13   19 1    
    20   13   15 1    
    21   14   16 1    
    22   14   22 1    
    23   14   21 1    
    24   15   57 1    
    25   15   58 1    
    26   15   16 1    
    27   16   55 1    
    28   16   56 1    
    29   19   36 1    
    30   19   39 1    
    31   19   23 1    
    32   20   33 1    
    33   20   26 1    
    34   20   43 1    
    35   21   25 1    
    36   21   47 1    
    37   21   30 1    
    38   22   51 1    
    39   22   24 1    
    40   22   27 1    
    41   27   28 1    
    42   27   29 1    
    43   27   30 1    
    44   30   32 1    
    45   30   31 1    
    46   33   35 1    
    47   33   36 1    
    48   33   34 1    
    49   36   38 1    
    50   36   37 1    
    51   39   42 1    
    52   39   41 1    
    53   39   40 1    
    54   43   45 1    
    55   43   44 1    
    56   43   46 1    
    57   47   48 1    
    58   47   50 1    
    59   47   49 1    
    60   51   54 1    
    61   51   52 1    
    62   51   53 1    
@<TRIPOS>SUBSTRUCTURE
     1 UNL         1 GROUP             0       ****    0 ROOT    
@<TRIPOS>MOLECULE
9 (R,R)-Me-BPE pro-S Conformation 2 from JCTC SI
58   62    1
SMALL
USER_CHARGES


@<TRIPOS>ATOM
      1 RH          0.0000    0.0000    0.0000 RH        1 UNL         0.0000 
      2 O           0.0000    0.0000    2.2260 O2        1 UNL         0.0000 
      3 C           1.1232    0.0000    2.7618 C2        1 UNL         0.0000 
      4 N           2.2640    0.0816    2.0631 N2        1 UNL         0.0000 
      5 C           2.2470    0.3000    0.6360 C2        1 UNL         0.0000 
      6 C           1.7230    1.5328    0.1612 C2        1 UNL         0.0000 
      7 C           3.1689   -0.5044   -0.0949 C1        1 UNL         0.0000 
      8 N           3.9487   -1.1757   -0.6429 N1        1 UNL         0.0000 
      9 H           1.5807    2.3230    0.8922 H1        1 UNL         0.0000 
     10 H           2.0063    1.8660   -0.8302 H1        1 UNL         0.0000 
     11 H           3.1526    0.0519    2.5509 H3        1 UNL         0.0000 
     12 H           1.2276   -0.0713    3.8504 H1        1 UNL         0.0000 
     13 P          -0.5485   -0.0234   -2.2355 PX        1 UNL         0.0000 
     14 P          -0.3862   -2.3744   -0.0284 PX        1 UNL         0.0000 
     15 C          -1.5018   -1.6064   -2.4792 C3        1 UNL         0.0000 
     16 C          -0.7733   -2.7817   -1.8088 C3        1 UNL         0.0000 
     17 H          -1.5514    0.1584   -0.0299 HX        1 UNL         0.0000 
     18 H           0.0398    1.6237   -0.0600 HX        1 UNL         0.0000 
     19 C          -1.6115    1.3939   -2.8434 C3        1 UNL         0.0000 
     20 C           0.6651    0.0418   -3.6916 C3        1 UNL         0.0000 
     21 C          -1.8205   -3.0394    1.0046 C3        1 UNL         0.0000 
     22 C           0.8699   -3.6361    0.5926 C3        1 UNL         0.0000 
     23 H          -1.2099    2.2634   -2.3066 H1        1 UNL         0.0000 
     24 H           1.4494   -3.0865    1.3460 H1        1 UNL         0.0000 
     25 H          -2.4047   -3.6583    0.3097 H1        1 UNL         0.0000 
     26 H           0.3674   -0.8216   -4.3019 H1        1 UNL         0.0000 
     27 C           0.0165   -4.6997    1.3185 C3        1 UNL         0.0000 
     28 H          -0.3802   -5.4139    0.5846 H1        1 UNL         0.0000 
     29 H           0.6349   -5.2732    2.0176 H1        1 UNL         0.0000 
     30 C          -1.1378   -3.9795    2.0250 C3        1 UNL         0.0000 
     31 H          -0.7523   -3.3859    2.8649 H1        1 UNL         0.0000 
     32 H          -1.8686   -4.6808    2.4411 H1        1 UNL         0.0000 
     33 C           0.2730    1.3297   -4.4552 C3        1 UNL         0.0000 
     34 H           0.7987    2.1876   -4.0146 H1        1 UNL         0.0000 
     35 H           0.5996    1.2608   -5.4981 H1        1 UNL         0.0000 
     36 C          -1.2428    1.5340   -4.3347 C3        1 UNL         0.0000 
     37 H          -1.5544    2.5124   -4.7154 H1        1 UNL         0.0000 
     38 H          -1.7775    0.7780   -4.9251 H1        1 UNL         0.0000 
     39 C          -3.1083    1.2863   -2.5450 C3        1 UNL         0.0000 
     40 H          -3.3032    1.1687   -1.4742 H1        1 UNL         0.0000 
     41 H          -3.6149    2.2002   -2.8713 H1        1 UNL         0.0000 
     42 H          -3.5705    0.4488   -3.0773 H1        1 UNL         0.0000 
     43 C           2.1596   -0.0697   -3.3946 C3        1 UNL         0.0000 
     44 H           2.4201   -0.9876   -2.8646 H1        1 UNL         0.0000 
     45 H           2.7196   -0.0605   -4.3357 H1        1 UNL         0.0000 
     46 H           2.5210    0.7747   -2.7997 H1        1 UNL         0.0000 
     47 C          -2.7397   -1.9942    1.6428 C3        1 UNL         0.0000 
     48 H          -3.2670   -1.3981    0.8924 H1        1 UNL         0.0000 
     49 H          -3.4963   -2.4955    2.2562 H1        1 UNL         0.0000 
     50 H          -2.1785   -1.3088    2.2834 H1        1 UNL         0.0000 
     51 C           1.8402   -4.2003   -0.4507 C3        1 UNL         0.0000 
     52 H           2.4484   -3.4204   -0.9166 H1        1 UNL         0.0000 
     53 H           2.5287   -4.9001    0.0351 H1        1 UNL         0.0000 
     54 H           1.3145   -4.7572   -1.2332 H1        1 UNL         0.0000 
     55 H           0.1780   -2.9789   -2.3147 H1        1 UNL         0.0000 
     56 H          -1.3696   -3.6980   -1.8745 H1        1 UNL         0.0000 
     57 H          -2.4903   -1.4599   -2.0324 H1        1 UNL         0.0000 
     58 H          -1.6487   -1.7924   -3.5488 H1        1 UNL         0.0000 
@<TRIPOS>BOND
     1    1   13 1    
     2    1   18 1    
     3    1   17 1    
     4    1    5 nc   
     5    1    2 nc   
     6    1   14 1    
     7    2    3 2    
     8    3    4 am   BACKBONE|DICT|INTERRES
     9    3   12 1    
    10    4    5 1    
    11    4   11 1    
    12    5    7 1    
    13    5    6 2    
    14    6   10 1    
    15    6    9 1    
    16    6   18 nc   
    17    7    8 3    
    18   13   20 1    
    19   13   19 1    
    20   13   15 1    
    21   14   16 1    
    22   14   22 1    
    23   14   21 1    
    24   15   57 1    
    25   15   58 1    
    26   15   16 1    
    27   16   55 1    
    28   16   56 1    
    29   19   36 1    
    30   19   39 1    
    31   19   23 1    
    32   20   33 1    
    33   20   26 1    
    34   20   43 1    
    35   21   25 1    
    36   21   47 1    
    37   21   30 1    
    38   22   51 1    
    39   22   24 1    
    40   22   27 1    
    41   27   28 1    
    42   27   29 1    
    43   27   30 1    
    44   30   32 1    
    45   30   31 1    
    46   33   35 1    
    47   33   36 1    
    48   33   34 1    
    49   36   38 1    
    50   36   37 1    
    51   39   42 1    
    52   39   41 1    
    53   39   40 1    
    54   43   45 1    
    55   43   44 1    
    56   43   46 1    
    57   47   48 1    
    58   47   50 1    
    59   47   49 1    
    60   51   54 1    
    61   51   52 1    
    62   51   53 1    
@<TRIPOS>SUBSTRUCTURE
     1 UNL         1 GROUP             0       ****    0 ROOT    
