@<TRIPOS>MOLECULE
1 ZDMP from JCTC SI
36   38    1
SMALL
USER_CHARGES


@<TRIPOS>ATOM
      1 RH          0.0000    0.0000    0.0000 RH        1 UNL         0.0000 
      2 O           0.0000    0.0000    2.2155 O2        1 UNL         0.0000 
      3 C           1.1328    0.0000    2.7331 C2        1 UNL         0.0000 
      4 N           2.2649    0.0844    2.0177 N2        1 UNL         0.0000 
      5 C           2.2199    0.3316    0.5970 C2        1 UNL         0.0000 
      6 C           1.6854    1.5730    0.1530 C2        1 UNL         0.0000 
      7 C           3.0661   -0.4839   -0.2107 C1        1 UNL         0.0000 
      8 N           3.7482   -1.1674   -0.8649 N1        1 UNL         0.0000 
      9 H           1.5432    2.3474    0.9008 H         1 UNL         0.0000 
     10 H           1.9605    1.9304   -0.8325 H         1 UNL         0.0000 
     11 H           3.1596    0.0722    2.4954 H3        1 UNL         0.0000 
     12 H           1.2523   -0.0753    3.8196 H         1 UNL         0.0000 
     13 P          -0.2565   -0.1286   -2.2596 P3        1 UNL         0.0000 
     14 P          -0.3227   -2.3535   -0.0024 P3        1 UNL         0.0000 
     15 C          -0.7066   -1.8522   -2.6770 C2        1 UNL         0.0000 
     16 C          -0.7391   -2.7936   -1.7282 C2        1 UNL         0.0000 
     17 H          -1.5569    0.1072   -0.0936 H         1 UNL         0.0000 
     18 H           0.0179    1.6327   -0.0936 H         1 UNL         0.0000 
     19 C          -1.5737    0.9069   -3.0066 C3        1 UNL         0.0000 
     20 C           1.2302    0.2170   -3.2867 C3        1 UNL         0.0000 
     21 C          -1.7346   -2.9372    1.0172 C3        1 UNL         0.0000 
     22 C           1.0613   -3.4867    0.4361 C3        1 UNL         0.0000 
     23 H          -1.3377    1.9613   -2.8402 H         1 UNL         0.0000 
     24 H           1.0226   -0.0264   -4.3334 H         1 UNL         0.0000 
     25 H          -1.8836   -4.0153    0.9083 H         1 UNL         0.0000 
     26 H           1.2864   -3.3789    1.5012 H         1 UNL         0.0000 
     27 H          -0.9348   -2.0829   -3.7177 H         1 UNL         0.0000 
     28 H          -0.9944   -3.8258   -1.9675 H         1 UNL         0.0000 
     29 H           1.9524   -3.2266   -0.1402 H         1 UNL         0.0000 
     30 H           0.7890   -4.5282    0.2403 H         1 UNL         0.0000 
     31 H          -1.5272   -2.7054    2.0654 H         1 UNL         0.0000 
     32 H          -2.6423   -2.4069    0.7220 H         1 UNL         0.0000 
     33 H          -2.5293    0.6866   -2.5271 H         1 UNL         0.0000 
     34 H          -1.6465    0.7208   -4.0823 H         1 UNL         0.0000 
     35 H           1.4842    1.2792   -3.2252 H         1 UNL         0.0000 
     36 H           2.0785   -0.3765   -2.9386 H         1 UNL         0.0000 
@<TRIPOS>BOND
     1    1   13 1    
     2    1   18 1    
     3    1   17 1    
     4    1   14 1    
     5    1    2 nc   
     6    1    5 nc   
     7    2    3 2    
     8    3    4 am   BACKBONE|DICT|INTERRES
     9    3   12 1    
    10    4    5 1    
    11    4   11 1    
    12    5    7 1    
    13    5    6 2    
    14    6   10 1    
    15    6    9 1    
    16    6   18 nc   
    17    7    8 3    
    18   13   20 1    
    19   13   19 1    
    20   13   15 1    
    21   14   16 1    
    22   14   22 1    
    23   14   21 1    
    24   15   27 1    
    25   15   16 2    
    26   16   28 1    
    27   19   34 1    
    28   19   23 1    
    29   19   33 1    
    30   20   24 1    
    31   20   35 1    
    32   20   36 1    
    33   21   32 1    
    34   21   25 1    
    35   21   31 1    
    36   22   29 1    
    37   22   30 1    
    38   22   26 1    
@<TRIPOS>SUBSTRUCTURE
     1 UNL         1 GROUP             0       ****    0 ROOT    
