@<TRIPOS>MOLECULE
2 DMPE Conformation 1 from JCTC SI
 38 38 0 0 0
SMALL
GASTEIGER

@<TRIPOS>ATOM
      1 RH          0.0000    0.0000    0.0000 RH      1  UNL1        0.0000
      2 O           0.0000    0.0000    2.2203 O.3     1  UNL1        0.0000
      3 C           1.1357    0.0000    2.7315 C3      1  UNL1        0.0000
      4 N           2.2646    0.0859    2.0101 N.3     1  UNL1        0.0000
      5 C           2.2081    0.3513    0.5935 C3      1  UNL1        0.0000
      6 C           1.6526    1.5914    0.1677 C3      1  UNL1        0.0000
      7 C           3.0514   -0.4378   -0.2424 C1      1  UNL1        0.0000
      8 N           3.7213   -1.0904   -0.9400 N1      1  UNL1        0.0000
      9 H           1.4930    2.3502    0.9278 H       1  UNL1        0.0000
     10 H           1.9259    1.9706   -0.8098 H       1  UNL1        0.0000
     11 H           3.1610    0.0860    2.4847 H       1  UNL1        0.0000
     12 H           1.2618   -0.0771    3.8173 H       1  UNL1        0.0000
     13 P          -0.1789   -0.1461   -2.2732 P3      1  UNL1        0.0000
     14 P          -0.3222   -2.3571    0.0258 P3      1  UNL1        0.0000
     15 C          -0.1631   -1.9516   -2.7244 C3      1  UNL1        0.0000
     16 C          -0.9161   -2.7914   -1.6813 C3      1  UNL1        0.0000
     17 H          -1.5591    0.0792   -0.1053 H       1  UNL1        0.0000
     18 H          -0.0255    1.6310   -0.1107 H       1  UNL1        0.0000
     19 C          -1.7114    0.5528   -3.0008 C3      1  UNL1        0.0000
     20 C           1.1751    0.5937   -3.2692 C3      1  UNL1        0.0000
     21 C          -1.6116   -2.9525    1.1868 C3      1  UNL1        0.0000
     22 C           1.1283   -3.4476    0.3321 C3      1  UNL1        0.0000
     23 H          -1.7698    1.6178   -2.7626 H       1  UNL1        0.0000
     24 H           1.0321    0.3432   -4.3251 H       1  UNL1        0.0000
     25 H          -1.7687   -4.0304    1.0862 H       1  UNL1        0.0000
     26 H           1.4740   -3.3070    1.3599 H       1  UNL1        0.0000
     27 H           1.9495   -3.1862   -0.3402 H       1  UNL1        0.0000
     28 H           0.8597   -4.4993    0.1930 H       1  UNL1        0.0000
     29 H          -1.3010   -2.7270    2.2101 H       1  UNL1        0.0000
     30 H          -2.5482   -2.4242    0.9935 H       1  UNL1        0.0000
     31 H          -2.5862    0.0613   -2.5696 H       1  UNL1        0.0000
     32 H          -1.7147    0.4234   -4.0874 H       1  UNL1        0.0000
     33 H           1.1637    1.6825   -3.1698 H       1  UNL1        0.0000
     34 H           2.1432    0.2080   -2.9403 H       1  UNL1        0.0000
     35 H          -0.5859   -2.0819   -3.7268 H       1  UNL1        0.0000
     36 H           0.8903   -2.2502   -2.7740 H       1  UNL1        0.0000
     37 H          -0.7894   -3.8621   -1.8732 H       1  UNL1        0.0000
     38 H          -1.9906   -2.5794   -1.7127 H       1  UNL1        0.0000
@<TRIPOS>BOND
     1    24    20    1
     2    32    19    1
     3    35    15    1
     4    20    33    1
     5    20    34    1
     6    20    13    1
     7    19    23    1
     8    19    31    1
     9    19    13    1
    10    36    15    1
    11    15    13    1
    12    15    16    1
    13    13     1    1
    14    37    16    1
    15    38    16    1
    16    16    14    1
    17     8     7    3
    18    10     6    1
    19    27    22    1
    20     7     5    1
    21    18     1    1
    22    17     1    1
    23     1     5    nc
    24     1     2    nc
    25    14    22    1
    26    14    21    1
    27     6     5    2
    28     6     9    1
    29    28    22    1
    30    22    26    1
    31     5     4    1
    32    30    21    1
    33    25    21    1
    34    21    29    1
    35     4    11    1
    36     4     3    am
    37     2     3    2
    38     3    12    1
    39     1    14    1
    40     6    18    nc
