@<TRIPOS>MOLECULE
2 DMPE Conformation 1 from JCTC SI
38   40    1
SMALL
USER_CHARGES


@<TRIPOS>ATOM
      1 RH          0.0000    0.0000    0.0000 RH        1 UNL         0.0000 
      2 O           0.0000    0.0000    2.2203 O2        1 UNL         0.0000 
      3 C           1.1357    0.0000    2.7315 C2        1 UNL         0.0000 
      4 N           2.2646    0.0859    2.0101 N2        1 UNL         0.0000 
      5 C           2.2081    0.3513    0.5935 C2        1 UNL         0.0000 
      6 C           1.6526    1.5914    0.1677 C2        1 UNL         0.0000 
      7 C           3.0514   -0.4378   -0.2424 C1        1 UNL         0.0000 
      8 N           3.7213   -1.0904   -0.9400 N1        1 UNL         0.0000 
      9 H           1.4930    2.3502    0.9278 H1        1 UNL         0.0000 
     10 H           1.9259    1.9706   -0.8098 H1        1 UNL         0.0000 
     11 H           3.1610    0.0860    2.4847 H3        1 UNL         0.0000 
     12 H           1.2618   -0.0771    3.8173 H1        1 UNL         0.0000 
     13 P          -0.1789   -0.1461   -2.2732 P3        1 UNL         0.0000 
     14 P          -0.3222   -2.3571    0.0258 P3        1 UNL         0.0000 
     15 C          -0.1631   -1.9516   -2.7244 C3        1 UNL         0.0000 
     16 C          -0.9161   -2.7914   -1.6813 C3        1 UNL         0.0000 
     17 H          -1.5591    0.0792   -0.1053 H1        1 UNL         0.0000 
     18 H          -0.0255    1.6310   -0.1107 H1        1 UNL         0.0000 
     19 C          -1.7114    0.5528   -3.0008 C3        1 UNL         0.0000 
     20 C           1.1751    0.5937   -3.2692 C3        1 UNL         0.0000 
     21 C          -1.6116   -2.9525    1.1868 C3        1 UNL         0.0000 
     22 C           1.1283   -3.4476    0.3321 C3        1 UNL         0.0000 
     23 H          -1.7698    1.6178   -2.7626 H1        1 UNL         0.0000 
     24 H           1.0321    0.3432   -4.3251 H1        1 UNL         0.0000 
     25 H          -1.7687   -4.0304    1.0862 H1        1 UNL         0.0000 
     26 H           1.4740   -3.3070    1.3599 H1        1 UNL         0.0000 
     27 H           1.9495   -3.1862   -0.3402 H1        1 UNL         0.0000 
     28 H           0.8597   -4.4993    0.1930 H1        1 UNL         0.0000 
     29 H          -1.3010   -2.7270    2.2101 H1        1 UNL         0.0000 
     30 H          -2.5482   -2.4242    0.9935 H1        1 UNL         0.0000 
     31 H          -2.5862    0.0613   -2.5696 H1        1 UNL         0.0000 
     32 H          -1.7147    0.4234   -4.0874 H1        1 UNL         0.0000 
     33 H           1.1637    1.6825   -3.1698 H1        1 UNL         0.0000 
     34 H           2.1432    0.2080   -2.9403 H1        1 UNL         0.0000 
     35 H          -0.5859   -2.0819   -3.7268 H1        1 UNL         0.0000 
     36 H           0.8903   -2.2502   -2.7740 H1        1 UNL         0.0000 
     37 H          -0.7894   -3.8621   -1.8732 H1        1 UNL         0.0000 
     38 H          -1.9906   -2.5794   -1.7127 H1        1 UNL         0.0000 
@<TRIPOS>BOND
     1    1   13 1    
     2    1   18 1    
     3    1   17 1    
     4    1    5 nc   
     5    1    2 nc   
     6    1   14 1    
     7    2    3 2    
     8    3    4 am   BACKBONE|DICT|INTERRES
     9    3   12 1    
    10    4    5 1    
    11    4   11 1    
    12    5    7 1    
    13    5    6 2    
    14    6   10 1    
    15    6    9 1    
    16    6   18 nc   
    17    7    8 3    
    18   13   20 1    
    19   13   19 1    
    20   13   15 1    
    21   14   16 1    
    22   14   22 1    
    23   14   21 1    
    24   15   35 1    
    25   15   36 1    
    26   15   16 1    
    27   16   37 1    
    28   16   38 1    
    29   19   32 1    
    30   19   23 1    
    31   19   31 1    
    32   20   24 1    
    33   20   33 1    
    34   20   34 1    
    35   21   30 1    
    36   21   25 1    
    37   21   29 1    
    38   22   27 1    
    39   22   28 1    
    40   22   26 1    
@<TRIPOS>SUBSTRUCTURE
     1 UNL         1 GROUP             0       ****    0 ROOT    
