@<TRIPOS>MOLECULE
3 DMPE Conformation 2 from JCTC SI
38   40    1
SMALL
USER_CHARGES


@<TRIPOS>ATOM
      1 RH          0.0000    0.0000    0.0000 RH        1 UNL         0.0000 
      2 O           0.0000    0.0000    2.2228 O2        1 UNL         0.0000 
      3 C           1.1332    0.0000    2.7375 C2        1 UNL         0.0000 
      4 N           2.2643    0.0769    2.0186 N2        1 UNL         0.0000 
      5 C           2.2167    0.3100    0.5956 C2        1 UNL         0.0000 
      6 C           1.6964    1.5544    0.1405 C2        1 UNL         0.0000 
      7 C           3.0473   -0.5280   -0.2054 C1        1 UNL         0.0000 
      8 N           3.7151   -1.2333   -0.8514 N1        1 UNL         0.0000 
      9 H           1.5691    2.3377    0.8818 H1        1 UNL         0.0000 
     10 H           1.9734    1.9002   -0.8488 H1        1 UNL         0.0000 
     11 H           3.1601    0.0657    2.4942 H3        1 UNL         0.0000 
     12 H           1.2566   -0.0683    3.8243 H1        1 UNL         0.0000 
     13 P          -0.2879   -0.1222   -2.2585 P3        1 UNL         0.0000 
     14 P          -0.3121   -2.3629    0.0051 P3        1 UNL         0.0000 
     15 C          -1.0833   -1.7614   -2.6211 C3        1 UNL         0.0000 
     16 C          -0.4485   -2.8786   -1.7787 C3        1 UNL         0.0000 
     17 H          -1.5585    0.1159   -0.0982 H1        1 UNL         0.0000 
     18 H           0.0230    1.6327   -0.0907 H1        1 UNL         0.0000 
     19 C          -1.3757    1.1375   -3.0249 C3        1 UNL         0.0000 
     20 C           1.2473   -0.0830   -3.2698 C3        1 UNL         0.0000 
     21 C          -1.8733   -2.8807    0.8228 C3        1 UNL         0.0000 
     22 C           0.9722   -3.4722    0.7131 C3        1 UNL         0.0000 
     23 H          -0.9307    2.1279   -2.8981 H1        1 UNL         0.0000 
     24 H           1.0044   -0.2766   -4.3195 H1        1 UNL         0.0000 
     25 H          -2.0010   -3.9664    0.7802 H1        1 UNL         0.0000 
     26 H           1.0419   -3.3071    1.7917 H1        1 UNL         0.0000 
     27 H           1.9421   -3.2540    0.2587 H1        1 UNL         0.0000 
     28 H           0.7166   -4.5217    0.5369 H1        1 UNL         0.0000 
     29 H          -1.8482   -2.5595    1.8675 H1        1 UNL         0.0000 
     30 H          -2.7237   -2.3921    0.3414 H1        1 UNL         0.0000 
     31 H          -2.3487    1.1330   -2.5291 H1        1 UNL         0.0000 
     32 H          -1.5026    0.9379   -4.0933 H1        1 UNL         0.0000 
     33 H           1.7140    0.9037   -3.2017 H1        1 UNL         0.0000 
     34 H           1.9664   -0.8255   -2.9165 H1        1 UNL         0.0000 
     35 H          -2.1471   -1.6506   -2.3839 H1        1 UNL         0.0000 
     36 H          -1.0082   -1.9780   -3.6926 H1        1 UNL         0.0000 
     37 H           0.5697   -3.0899   -2.1244 H1        1 UNL         0.0000 
     38 H          -1.0185   -3.8097   -1.8652 H1        1 UNL         0.0000 
@<TRIPOS>BOND
     1    1   13 1    
     2    1   18 1    
     3    1   17 1    
     4    1    5 nc   
     5    1    2 nc   
     6    1   14 1    
     7    2    3 2    
     8    3    4 am   BACKBONE|DICT|INTERRES
     9    3   12 1    
    10    4    5 1    
    11    4   11 1    
    12    5    7 1    
    13    5    6 2    
    14    6   10 1    
    15    6    9 1    
    16    6   18 nc   
    17    7    8 3    
    18   13   20 1    
    19   13   19 1    
    20   13   15 1    
    21   14   16 1    
    22   14   22 1    
    23   14   21 1    
    24   15   35 1    
    25   15   36 1    
    26   15   16 1    
    27   16   37 1    
    28   16   38 1    
    29   19   32 1    
    30   19   23 1    
    31   19   31 1    
    32   20   24 1    
    33   20   33 1    
    34   20   34 1    
    35   21   30 1    
    36   21   25 1    
    37   21   29 1    
    38   22   27 1    
    39   22   28 1    
    40   22   26 1    
@<TRIPOS>SUBSTRUCTURE
     1 UNL         1 GROUP             0       ****    0 ROOT    
