@<TRIPOS>MOLECULE
3 DMPE Conformation 2 from JCTC SI
 38 38 0 0 0
SMALL
GASTEIGER

@<TRIPOS>ATOM
      1 RH          0.0000    0.0000    0.0000 RH      1  UNL1        0.0000
      2 O           0.0000    0.0000    2.2228 O.3     1  UNL1        0.0000
      3 C           1.1332    0.0000    2.7375 C3      1  UNL1        0.0000
      4 N           2.2643    0.0769    2.0186 N.3     1  UNL1        0.0000
      5 C           2.2167    0.3100    0.5956 C3      1  UNL1        0.0000
      6 C           1.6964    1.5544    0.1405 C3      1  UNL1        0.0000
      7 C           3.0473   -0.5280   -0.2054 C1      1  UNL1        0.0000
      8 N           3.7151   -1.2333   -0.8514 N1      1  UNL1        0.0000
      9 H           1.5691    2.3377    0.8818 H       1  UNL1        0.0000
     10 H           1.9734    1.9002   -0.8488 H       1  UNL1        0.0000
     11 H           3.1601    0.0657    2.4942 H       1  UNL1        0.0000
     12 H           1.2566   -0.0683    3.8243 H       1  UNL1        0.0000
     13 P          -0.2879   -0.1222   -2.2585 P3      1  UNL1        0.0000
     14 P          -0.3121   -2.3629    0.0051 P3      1  UNL1        0.0000
     15 C          -1.0833   -1.7614   -2.6211 C3      1  UNL1        0.0000
     16 C          -0.4485   -2.8786   -1.7787 C3      1  UNL1        0.0000
     17 H          -1.5585    0.1159   -0.0982 H       1  UNL1        0.0000
     18 H           0.0230    1.6327   -0.0907 H       1  UNL1        0.0000
     19 C          -1.3757    1.1375   -3.0249 C3      1  UNL1        0.0000
     20 C           1.2473   -0.0830   -3.2698 C3      1  UNL1        0.0000
     21 C          -1.8733   -2.8807    0.8228 C3      1  UNL1        0.0000
     22 C           0.9722   -3.4722    0.7131 C3      1  UNL1        0.0000
     23 H          -0.9307    2.1279   -2.8981 H       1  UNL1        0.0000
     24 H           1.0044   -0.2766   -4.3195 H       1  UNL1        0.0000
     25 H          -2.0010   -3.9664    0.7802 H       1  UNL1        0.0000
     26 H           1.0419   -3.3071    1.7917 H       1  UNL1        0.0000
     27 H           1.9421   -3.2540    0.2587 H       1  UNL1        0.0000
     28 H           0.7166   -4.5217    0.5369 H       1  UNL1        0.0000
     29 H          -1.8482   -2.5595    1.8675 H       1  UNL1        0.0000
     30 H          -2.7237   -2.3921    0.3414 H       1  UNL1        0.0000
     31 H          -2.3487    1.1330   -2.5291 H       1  UNL1        0.0000
     32 H          -1.5026    0.9379   -4.0933 H       1  UNL1        0.0000
     33 H           1.7140    0.9037   -3.2017 H       1  UNL1        0.0000
     34 H           1.9664   -0.8255   -2.9165 H       1  UNL1        0.0000
     35 H          -2.1471   -1.6506   -2.3839 H       1  UNL1        0.0000
     36 H          -1.0082   -1.9780   -3.6926 H       1  UNL1        0.0000
     37 H           0.5697   -3.0899   -2.1244 H       1  UNL1        0.0000
     38 H          -1.0185   -3.8097   -1.8652 H       1  UNL1        0.0000
@<TRIPOS>BOND
     1    24    20    1
     2    32    19    1
     3    35    15    1
     4    20    33    1
     5    20    34    1
     6    20    13    1
     7    19    23    1
     8    19    31    1
     9    19    13    1
    10    36    15    1
    11    15    13    1
    12    15    16    1
    13    13     1    1
    14    37    16    1
    15    38    16    1
    16    16    14    1
    17     8     7    3
    18    10     6    1
    19    27    22    1
    20     7     5    1
    21    18     1    1
    22    17     1    1
    23     1     5    nc
    24     1     2    nc
    25    14    22    1
    26    14    21    1
    27     6     5    2
    28     6     9    1
    29    28    22    1
    30    22    26    1
    31     5     4    1
    32    30    21    1
    33    25    21    1
    34    21    29    1
    35     4    11    1
    36     4     3    am
    37     2     3    2
    38     3    12    1
    39     1    14    1
    40     6    18    nc
