@<TRIPOS>MOLECULE
4 (R,R)-Me-DuPHOS pro-R from JCTC SI
62   67    1
SMALL
USER_CHARGES


@<TRIPOS>ATOM
      1 RH          0.0000    0.0000    0.0000 RH        1 UNL         0.0000 
      2 O           0.0000    0.0000    2.2298 O2        1 UNL         0.0000 
      3 C           1.1304    0.0000    2.7545 C2        1 UNL         0.0000 
      4 N           2.2647   -0.1131    2.0501 N2        1 UNL         0.0000 
      5 C           2.2311   -0.3941    0.6355 C2        1 UNL         0.0000 
      6 C           1.6215   -1.6075    0.2147 C2        1 UNL         0.0000 
      7 C           3.2193    0.2631   -0.1527 C1        1 UNL         0.0000 
      8 N           4.0518    0.7773   -0.7865 N1        1 UNL         0.0000 
      9 H           1.4011   -2.3476    0.9780 H1        1 UNL         0.0000 
     10 H           1.8985   -2.0120   -0.7521 H1        1 UNL         0.0000 
     11 H           3.1561   -0.0984    2.5335 H3        1 UNL         0.0000 
     12 H           1.2456    0.1008    3.8395 H1        1 UNL         0.0000 
     13 P          -0.2385    0.1390   -2.2661 P3        1 UNL         0.0000 
     14 P          -0.5582    2.3241    0.0408 P3        1 UNL         0.0000 
     15 C          -1.0770    1.7335   -2.6518 C2        1 UNL         0.0000 
     16 C          -1.1951    2.7104   -1.6421 C2        1 UNL         0.0000 
     17 H          -1.5546   -0.1218   -0.1104 H1        1 UNL         0.0000 
     18 H          -0.0920   -1.6074   -0.0906 H1        1 UNL         0.0000 
     19 C          -1.1456   -1.2209   -3.2021 C3        1 UNL         0.0000 
     20 C           1.3385    0.0391   -3.2998 C3        1 UNL         0.0000 
     21 C          -1.9018    2.6471    1.3202 C3        1 UNL         0.0000 
     22 C           0.5033    3.8043    0.5503 C3        1 UNL         0.0000 
     23 C          -1.7953    3.9418   -1.9469 C2        1 UNL         0.0000 
     24 H          -1.8935    4.7056   -1.1815 H1        1 UNL         0.0000 
     25 C          -1.5618    2.0096   -3.9401 C2        1 UNL         0.0000 
     26 H          -1.4686    1.2758   -4.7345 H1        1 UNL         0.0000 
     27 C          -2.2837    4.2002   -3.2261 C2        1 UNL         0.0000 
     28 H          -2.7559    5.1537   -3.4424 H1        1 UNL         0.0000 
     29 C          -2.1663    3.2326   -4.2242 C2        1 UNL         0.0000 
     30 H          -2.5420    3.4291   -5.2237 H1        1 UNL         0.0000 
     31 C          -0.0835    4.2382    1.9127 C3        1 UNL         0.0000 
     32 H           0.2066    5.2701    2.1379 H1        1 UNL         0.0000 
     33 H           0.3367    3.6091    2.7090 H1        1 UNL         0.0000 
     34 C          -1.6075    4.0622    1.8623 C3        1 UNL         0.0000 
     35 H          -2.0668    4.1961    2.8478 H1        1 UNL         0.0000 
     36 H          -2.0534    4.8184    1.2025 H1        1 UNL         0.0000 
     37 C           0.9484   -0.8476   -4.5041 C3        1 UNL         0.0000 
     38 H           1.8451   -1.2829   -4.9579 H1        1 UNL         0.0000 
     39 H           0.4706   -0.2316   -5.2773 H1        1 UNL         0.0000 
     40 C          -0.0289   -1.9222   -4.0091 C3        1 UNL         0.0000 
     41 H           0.4967   -2.6404   -3.3649 H1        1 UNL         0.0000 
     42 H          -0.4620   -2.4975   -4.8340 H1        1 UNL         0.0000 
     43 C          -3.3433    2.4019    0.8704 C3        1 UNL         0.0000 
     44 H          -3.4884    1.3742    0.5240 H1        1 UNL         0.0000 
     45 H          -3.6433    3.0793    0.0658 H1        1 UNL         0.0000 
     46 H          -4.0226    2.5633    1.7139 H1        1 UNL         0.0000 
     47 C           2.0141    3.5724    0.5556 C3        1 UNL         0.0000 
     48 H           2.2954    2.7886    1.2657 H1        1 UNL         0.0000 
     49 H           2.5302    4.4913    0.8541 H1        1 UNL         0.0000 
     50 H           2.3951    3.2836   -0.4272 H1        1 UNL         0.0000 
     51 C           1.9902    1.3754   -3.6638 C3        1 UNL         0.0000 
     52 H           2.2947    1.9347   -2.7757 H1        1 UNL         0.0000 
     53 H           1.3229    2.0024   -4.2619 H1        1 UNL         0.0000 
     54 H           2.8943    1.1884   -4.2519 H1        1 UNL         0.0000 
     55 C          -2.0197   -2.1606   -2.3715 C3        1 UNL         0.0000 
     56 H          -2.7981   -1.6212   -1.8251 H1        1 UNL         0.0000 
     57 H          -1.4277   -2.7222   -1.6426 H1        1 UNL         0.0000 
     58 H          -2.5113   -2.8816   -3.0331 H1        1 UNL         0.0000 
     59 H          -1.6543    1.9199    2.1037 H1        1 UNL         0.0000 
     60 H           2.0399   -0.5230   -2.6713 H1        1 UNL         0.0000 
     61 H          -1.7909   -0.6834   -3.9076 H1        1 UNL         0.0000 
     62 H           0.2675    4.5783   -0.1912 H1        1 UNL         0.0000 
@<TRIPOS>BOND
     1    1   13 1    
     2    1   17 1    
     3    1   18 1    
     4    1    5 nc   
     5    1    2 nc   
     6    1   14 1    
     7    2    3 2    
     8    3    4 am   BACKBONE|DICT|INTERRES
     9    3   12 1    
    10    4    5 1    
    11    4   11 1    
    12    5    7 1    
    13    5    6 2    
    14    6   10 1    
    15    6    9 1    
    16    6   18 nc   
    17    7    8 3    
    18   13   20 1    
    19   13   19 1    
    20   13   15 1    
    21   14   16 1    
    22   14   22 1    
    23   14   21 1    
    24   15   25 ar   
    25   15   16 ar   
    26   16   23 ar   
    27   19   40 1    
    28   19   61 1    
    29   19   55 1    
    30   20   37 1    
    31   20   51 1    
    32   20   60 1    
    33   21   43 1    
    34   21   34 1    
    35   21   59 1    
    36   22   62 1    
    37   22   47 1    
    38   22   31 1    
    39   23   27 ar   
    40   23   24 1    
    41   25   26 1    
    42   25   29 ar   
    43   27   29 ar   
    44   27   28 1    
    45   29   30 1    
    46   31   34 1    
    47   31   32 1    
    48   31   33 1    
    49   34   36 1    
    50   34   35 1    
    51   37   39 1    
    52   37   38 1    
    53   37   40 1    
    54   40   42 1    
    55   40   41 1    
    56   43   45 1    
    57   43   44 1    
    58   43   46 1    
    59   47   50 1    
    60   47   49 1    
    61   47   48 1    
    62   51   53 1    
    63   51   54 1    
    64   51   52 1    
    65   55   58 1    
    66   55   56 1    
    67   55   57 1    
@<TRIPOS>SUBSTRUCTURE
     1 UNL         1 GROUP             0       ****    0 ROOT    
