@<TRIPOS>MOLECULE
5 (R,R)-Me-DuPHOS pro-S from JCTC SI
62   67    1
SMALL
USER_CHARGES


@<TRIPOS>ATOM
      1 RH          0.0000    0.0000    0.0000 RH        1 UNL         0.0000 
      2 O           0.0000    0.0000    2.2259 O2        1 UNL         0.0000 
      3 C           1.1232    0.0000    2.7630 C2        1 UNL         0.0000 
      4 N           2.2634    0.0956    2.0659 N2        1 UNL         0.0000 
      5 C           2.2405    0.3497    0.6452 C2        1 UNL         0.0000 
      6 C           1.6799    1.5776    0.2036 C2        1 UNL         0.0000 
      7 C           3.1739   -0.4178   -0.1097 C1        1 UNL         0.0000 
      8 N           3.9626   -1.0598   -0.6797 N1        1 UNL         0.0000 
      9 H           1.5058    2.3400    0.9567 H1        1 UNL         0.0000 
     10 H           1.9549    1.9501   -0.7752 H1        1 UNL         0.0000 
     11 H           3.1525    0.0703    2.5530 H3        1 UNL         0.0000 
     12 H           1.2264   -0.0836    3.8507 H1        1 UNL         0.0000 
     13 P          -0.4589   -0.0203   -2.2522 P3        1 UNL         0.0000 
     14 P          -0.3486   -2.3620   -0.0537 P3        1 UNL         0.0000 
     15 C          -1.0662   -1.7059   -2.6852 C2        1 UNL         0.0000 
     16 C          -1.0204   -2.7360   -1.7249 C2        1 UNL         0.0000 
     17 H          -1.5560    0.0983   -0.0476 H1        1 UNL         0.0000 
     18 H          -0.0121    1.6262   -0.0439 H1        1 UNL         0.0000 
     19 C          -1.7357    1.2748   -2.7490 C3        1 UNL         0.0000 
     20 C           0.7440    0.4295   -3.6472 C3        1 UNL         0.0000 
     21 C          -1.5367   -3.1475    1.1828 C3        1 UNL         0.0000 
     22 C           1.0804   -3.5432    0.3232 C3        1 UNL         0.0000 
     23 H          -1.5486    2.0686   -2.0158 H1        1 UNL         0.0000 
     24 H           1.7513   -2.9336    0.9419 H1        1 UNL         0.0000 
     25 H          -2.1376   -3.8433    0.5835 H1        1 UNL         0.0000 
     26 H           0.4969   -0.3162   -4.4137 H1        1 UNL         0.0000 
     27 C          -1.4821   -4.0162   -2.0701 C2        1 UNL         0.0000 
     28 H          -1.4485   -4.8232   -1.3446 H1        1 UNL         0.0000 
     29 C          -1.5701   -1.9802   -3.9672 C2        1 UNL         0.0000 
     30 H          -1.6155   -1.1986   -4.7192 H1        1 UNL         0.0000 
     31 C          -1.9847   -4.2746   -3.3432 C2        1 UNL         0.0000 
     32 H          -2.3387   -5.2701   -3.5933 H1        1 UNL         0.0000 
     33 C          -2.0303   -3.2538   -4.2932 C2        1 UNL         0.0000 
     34 H          -2.4245   -3.4478   -5.2862 H1        1 UNL         0.0000 
     35 C           0.4588   -4.6377    1.2193 C3        1 UNL         0.0000 
     36 H           0.0046   -5.4160    0.5916 H1        1 UNL         0.0000 
     37 H           1.2367   -5.1291    1.8141 H1        1 UNL         0.0000 
     38 C          -0.6153   -3.9828    2.0990 C3        1 UNL         0.0000 
     39 H          -0.1451   -3.3280    2.8451 H1        1 UNL         0.0000 
     40 H          -1.2022   -4.7234    2.6527 H1        1 UNL         0.0000 
     41 C           0.2493    1.8030   -4.1482 C3        1 UNL         0.0000 
     42 H           0.6261    2.5984   -3.4910 H1        1 UNL         0.0000 
     43 H           0.6498    2.0032   -5.1479 H1        1 UNL         0.0000 
     44 C          -1.2858    1.7898   -4.1320 C3        1 UNL         0.0000 
     45 H          -1.7058    2.7837   -4.3197 H1        1 UNL         0.0000 
     46 H          -1.6661    1.1337   -4.9257 H1        1 UNL         0.0000 
     47 C          -3.2024    0.8568   -2.6389 C3        1 UNL         0.0000 
     48 H          -3.4550    0.5372   -1.6230 H1        1 UNL         0.0000 
     49 H          -3.8448    1.7082   -2.8854 H1        1 UNL         0.0000 
     50 H          -3.4497    0.0414   -3.3242 H1        1 UNL         0.0000 
     51 C           2.2445    0.3433   -3.3776 C3        1 UNL         0.0000 
     52 H           2.5491   -0.6366   -3.0047 H1        1 UNL         0.0000 
     53 H           2.7902    0.5270   -4.3092 H1        1 UNL         0.0000 
     54 H           2.5792    1.0961   -2.6585 H1        1 UNL         0.0000 
     55 C          -2.4804   -2.1889    1.9128 C3        1 UNL         0.0000 
     56 H          -3.1385   -1.6618    1.2158 H1        1 UNL         0.0000 
     57 H          -3.1159   -2.7545    2.6031 H1        1 UNL         0.0000 
     58 H          -1.9277   -1.4419    2.4869 H1        1 UNL         0.0000 
     59 C           1.8752   -4.0590   -0.8795 C3        1 UNL         0.0000 
     60 H           2.3544   -3.2450   -1.4293 H1        1 UNL         0.0000 
     61 H           2.6707   -4.7259   -0.5302 H1        1 UNL         0.0000 
     62 H           1.2456   -4.6255   -1.5715 H1        1 UNL         0.0000 
@<TRIPOS>BOND
     1    1   13 1    
     2    1   17 1    
     3    1   18 1    
     4    1    2 nc   
     5    1   14 1    
     6    1    5 nc   
     7    2    3 2    
     8    3    4 am   BACKBONE|DICT|INTERRES
     9    3   12 1    
    10    4    5 1    
    11    4   11 1    
    12    5    7 1    
    13    5    6 2    
    14    6   10 1    
    15    6    9 1    
    16    6   18 nc   
    17    7    8 3    
    18   13   20 1    
    19   13   19 1    
    20   13   15 1    
    21   14   16 1    
    22   14   22 1    
    23   14   21 1    
    24   15   29 ar   
    25   15   16 ar   
    26   16   27 ar   
    27   19   44 1    
    28   19   47 1    
    29   19   23 1    
    30   20   26 1    
    31   20   41 1    
    32   20   51 1    
    33   21   25 1    
    34   21   55 1    
    35   21   38 1    
    36   22   59 1    
    37   22   24 1    
    38   22   35 1    
    39   27   31 ar   
    40   27   28 1    
    41   29   30 1    
    42   29   33 ar   
    43   31   33 ar   
    44   31   32 1    
    45   33   34 1    
    46   35   36 1    
    47   35   37 1    
    48   35   38 1    
    49   38   40 1    
    50   38   39 1    
    51   41   43 1    
    52   41   44 1    
    53   41   42 1    
    54   44   46 1    
    55   44   45 1    
    56   47   50 1    
    57   47   49 1    
    58   47   48 1    
    59   51   53 1    
    60   51   52 1    
    61   51   54 1    
    62   55   56 1    
    63   55   58 1    
    64   55   57 1    
    65   59   62 1    
    66   59   60 1    
    67   59   61 1    
@<TRIPOS>SUBSTRUCTURE
     1 UNL         1 GROUP             0       ****    0 ROOT    
