@<TRIPOS>MOLECULE
5 (R,R)-Me-DuPHOS pro-S from JCTC SI
 62 65 0 0 0
SMALL
GASTEIGER

@<TRIPOS>ATOM
      1 RH          0.0000    0.0000    0.0000 RH      1  UNL1        0.0000
      2 O           0.0000    0.0000    2.2259 O.3     1  UNL1        0.0000
      3 C           1.1232    0.0000    2.7630 C3      1  UNL1        0.0000
      4 N           2.2634    0.0956    2.0659 N.3     1  UNL1        0.0000
      5 C           2.2405    0.3497    0.6452 C3      1  UNL1        0.0000
      6 C           1.6799    1.5776    0.2036 C3      1  UNL1        0.0000
      7 C           3.1739   -0.4178   -0.1097 C1      1  UNL1        0.0000
      8 N           3.9626   -1.0598   -0.6797 N1      1  UNL1        0.0000
      9 H           1.5058    2.3400    0.9567 H       1  UNL1        0.0000
     10 H           1.9549    1.9501   -0.7752 H       1  UNL1        0.0000
     11 H           3.1525    0.0703    2.5530 H       1  UNL1        0.0000
     12 H           1.2264   -0.0836    3.8507 H       1  UNL1        0.0000
     13 P          -0.4589   -0.0203   -2.2522 P3      1  UNL1        0.0000
     14 P          -0.3486   -2.3620   -0.0537 P3      1  UNL1        0.0000
     15 C          -1.0662   -1.7059   -2.6852 C2      1  UNL1        0.0000
     16 C          -1.0204   -2.7360   -1.7249 C2      1  UNL1        0.0000
     17 H          -1.5560    0.0983   -0.0476 H       1  UNL1        0.0000
     18 H          -0.0121    1.6262   -0.0439 H       1  UNL1        0.0000
     19 C          -1.7357    1.2748   -2.7490 C3      1  UNL1        0.0000
     20 C           0.7440    0.4295   -3.6472 C3      1  UNL1        0.0000
     21 C          -1.5367   -3.1475    1.1828 C3      1  UNL1        0.0000
     22 C           1.0804   -3.5432    0.3232 C3      1  UNL1        0.0000
     23 H          -1.5486    2.0686   -2.0158 H       1  UNL1        0.0000
     24 H           1.7513   -2.9336    0.9419 H       1  UNL1        0.0000
     25 H          -2.1376   -3.8433    0.5835 H       1  UNL1        0.0000
     26 H           0.4969   -0.3162   -4.4137 H       1  UNL1        0.0000
     27 C          -1.4821   -4.0162   -2.0701 C2      1  UNL1        0.0000
     28 H          -1.4485   -4.8232   -1.3446 H       1  UNL1        0.0000
     29 C          -1.5701   -1.9802   -3.9672 C2      1  UNL1        0.0000
     30 H          -1.6155   -1.1986   -4.7192 H       1  UNL1        0.0000
     31 C          -1.9847   -4.2746   -3.3432 C2      1  UNL1        0.0000
     32 H          -2.3387   -5.2701   -3.5933 H       1  UNL1        0.0000
     33 C          -2.0303   -3.2538   -4.2932 C2      1  UNL1        0.0000
     34 H          -2.4245   -3.4478   -5.2862 H       1  UNL1        0.0000
     35 C           0.4588   -4.6377    1.2193 C3      1  UNL1        0.0000
     36 H           0.0046   -5.4160    0.5916 H       1  UNL1        0.0000
     37 H           1.2367   -5.1291    1.8141 H       1  UNL1        0.0000
     38 C          -0.6153   -3.9828    2.0990 C3      1  UNL1        0.0000
     39 H          -0.1451   -3.3280    2.8451 H       1  UNL1        0.0000
     40 H          -1.2022   -4.7234    2.6527 H       1  UNL1        0.0000
     41 C           0.2493    1.8030   -4.1482 C3      1  UNL1        0.0000
     42 H           0.6261    2.5984   -3.4910 H       1  UNL1        0.0000
     43 H           0.6498    2.0032   -5.1479 H       1  UNL1        0.0000
     44 C          -1.2858    1.7898   -4.1320 C3      1  UNL1        0.0000
     45 H          -1.7058    2.7837   -4.3197 H       1  UNL1        0.0000
     46 H          -1.6661    1.1337   -4.9257 H       1  UNL1        0.0000
     47 C          -3.2024    0.8568   -2.6389 C3      1  UNL1        0.0000
     48 H          -3.4550    0.5372   -1.6230 H       1  UNL1        0.0000
     49 H          -3.8448    1.7082   -2.8854 H       1  UNL1        0.0000
     50 H          -3.4497    0.0414   -3.3242 H       1  UNL1        0.0000
     51 C           2.2445    0.3433   -3.3776 C3      1  UNL1        0.0000
     52 H           2.5491   -0.6366   -3.0047 H       1  UNL1        0.0000
     53 H           2.7902    0.5270   -4.3092 H       1  UNL1        0.0000
     54 H           2.5792    1.0961   -2.6585 H       1  UNL1        0.0000
     55 C          -2.4804   -2.1889    1.9128 C3      1  UNL1        0.0000
     56 H          -3.1385   -1.6618    1.2158 H       1  UNL1        0.0000
     57 H          -3.1159   -2.7545    2.6031 H       1  UNL1        0.0000
     58 H          -1.9277   -1.4419    2.4869 H       1  UNL1        0.0000
     59 C           1.8752   -4.0590   -0.8795 C3      1  UNL1        0.0000
     60 H           2.3544   -3.2450   -1.4293 H       1  UNL1        0.0000
     61 H           2.6707   -4.7259   -0.5302 H       1  UNL1        0.0000
     62 H           1.2456   -4.6255   -1.5715 H       1  UNL1        0.0000
@<TRIPOS>BOND
     1    39    37    1
     2    30    29    1
     3    38    37    1
     4    42    40    1
     5    26    25    1
     6    37    40    1
     7    37    20    1
     8    53    51    1
     9    54    51    1
    10    29    25   ar
    11    29    27   ar
    12    40    41    1
    13    40    19    1
    14    25    15   ar
    15    61    19    1
    16    51    20    1
    17    51    52    1
    18    28    27    1
    19    20    60    1
    20    20    13    1
    21    27    23   ar
    22    19    55    1
    23    19    13    1
    24    58    55    1
    25    15    13    1
    26    15    16   ar
    27    55    56    1
    28    55    57    1
    29    13     1    1
    30    23    16   ar
    31    23    24    1
    32    16    14    1
    33     8     7    3
    34    10     6    1
    35    50    47    1
    36    62    22    1
    37     7     5    1
    38    17     1    1
    39    18     1    1
    40     1     5    nc
    41     1     2    nc
    42    14    22    1
    43    14    21    1
    44    45    43    1
    45     6     5    2
    46     6     9    1
    47    44    43    1
    48    22    47    1
    49    22    31    1
    50    47    49    1
    51    47    48    1
    52     5     4    1
    53    43    21    1
    54    43    46    1
    55    36    34    1
    56    21    34    1
    57    21    59    1
    58    34    31    1
    59    34    35    1
    60    31    32    1
    61    31    33    1
    62     4    11    1
    63     4     3    1
    64     2     3    2
    65     3    12    1
    66     1    14    1
    67     6    18    nc
