@<TRIPOS>MOLECULE
8 (R,R)-Me-BPE pro-S Conformation 1 from JCTC SI
58   62    1
SMALL
USER_CHARGES


@<TRIPOS>ATOM
      1 RH          0.0000    0.0000    0.0000 RH        1 UNL         0.0000 
      2 O           0.0000    0.0000    2.2276 O2        1 UNL         0.0000 
      3 C           1.1285    0.0000    2.7549 C2        1 UNL         0.0000 
      4 N           2.2616    0.1104    2.0478 N2        1 UNL         0.0000 
      5 C           2.2144    0.4059    0.6364 C2        1 UNL         0.0000 
      6 C           1.6148    1.6311    0.2343 C2        1 UNL         0.0000 
      7 C           3.1430   -0.3112   -0.1724 C1        1 UNL         0.0000 
      8 N           3.9162   -0.9034   -0.8139 N1        1 UNL         0.0000 
      9 H           1.4081    2.3581    1.0140 H1        1 UNL         0.0000 
     10 H           1.8910    2.0459   -0.7254 H1        1 UNL         0.0000 
     11 H           3.1550    0.1035    2.5277 H3        1 UNL         0.0000 
     12 H           1.2417   -0.0964    3.8406 H1        1 UNL         0.0000 
     13 P          -0.3754   -0.0832   -2.2778 P3        1 UNL         0.0000 
     14 P          -0.2863   -2.3834    0.0089 P3        1 UNL         0.0000 
     15 C          -0.4359   -1.8881   -2.7565 C3        1 UNL         0.0000 
     16 C          -1.0148   -2.7837   -1.6576 C3        1 UNL         0.0000 
     17 H          -1.5583    0.0459   -0.0597 H1        1 UNL         0.0000 
     18 H          -0.0518    1.6274   -0.0785 H1        1 UNL         0.0000 
     19 C          -1.9619    0.7412   -2.8438 C3        1 UNL         0.0000 
     20 C           0.6836    0.6606   -3.6684 C3        1 UNL         0.0000 
     21 C          -1.4506   -3.2086    1.2376 C3        1 UNL         0.0000 
     22 C           1.1647   -3.5384    0.3532 C3        1 UNL         0.0000 
     23 H          -2.0056    1.6479   -2.2266 H1        1 UNL         0.0000 
     24 H           1.8264   -2.9470    0.9988 H1        1 UNL         0.0000 
     25 H          -2.0501   -3.8912    0.6185 H1        1 UNL         0.0000 
     26 H           0.8024   -0.1960   -4.3461 H1        1 UNL         0.0000 
     27 C           0.5540   -4.6791    1.1986 C3        1 UNL         0.0000 
     28 H           0.0955   -5.4240    0.5344 H1        1 UNL         0.0000 
     29 H           1.3373   -5.1967    1.7629 H1        1 UNL         0.0000 
     30 C          -0.5171   -4.0714    2.1141 C3        1 UNL         0.0000 
     31 H          -0.0463   -3.4427    2.8822 H1        1 UNL         0.0000 
     32 H          -1.0924   -4.8393    2.6420 H1        1 UNL         0.0000 
     33 C          -0.2440    1.6880   -4.3557 C3        1 UNL         0.0000 
     34 H          -0.1805    2.6484   -3.8271 H1        1 UNL         0.0000 
     35 H           0.0928    1.8673   -5.3822 H1        1 UNL         0.0000 
     36 C          -1.6825    1.1602   -4.3007 C3        1 UNL         0.0000 
     37 H          -2.4078    1.9131   -4.6268 H1        1 UNL         0.0000 
     38 H          -1.7978    0.2974   -4.9706 H1        1 UNL         0.0000 
     39 C          -3.2514   -0.0545   -2.6332 C3        1 UNL         0.0000 
     40 H          -3.4127   -0.2972   -1.5782 H1        1 UNL         0.0000 
     41 H          -4.1088    0.5400   -2.9651 H1        1 UNL         0.0000 
     42 H          -3.2575   -0.9844   -3.2119 H1        1 UNL         0.0000 
     43 C           2.0757    1.2061   -3.3485 C3        1 UNL         0.0000 
     44 H           2.7030    0.4868   -2.8174 H1        1 UNL         0.0000 
     45 H           2.5865    1.4581   -4.2839 H1        1 UNL         0.0000 
     46 H           2.0186    2.1306   -2.7650 H1        1 UNL         0.0000 
     47 C          -2.3933   -2.2830    2.0102 C3        1 UNL         0.0000 
     48 H          -3.0581   -1.7291    1.3404 H1        1 UNL         0.0000 
     49 H          -3.0224   -2.8753    2.6832 H1        1 UNL         0.0000 
     50 H          -1.8386   -1.5552    2.6065 H1        1 UNL         0.0000 
     51 C           1.9701   -4.0030   -0.8648 C3        1 UNL         0.0000 
     52 H           2.4571   -3.1694   -1.3775 H1        1 UNL         0.0000 
     53 H           2.7618   -4.6862   -0.5389 H1        1 UNL         0.0000 
     54 H           1.3485   -4.5509   -1.5811 H1        1 UNL         0.0000 
     55 H          -0.8674   -3.8417   -1.8984 H1        1 UNL         0.0000 
     56 H          -2.0937   -2.6237   -1.5577 H1        1 UNL         0.0000 
     57 H          -0.9985   -1.9901   -3.6918 H1        1 UNL         0.0000 
     58 H           0.6000   -2.1722   -2.9739 H1        1 UNL         0.0000 
@<TRIPOS>BOND
     1    1   13 1    
     2    1   18 1    
     3    1   17 1    
     4    1    5 nc   
     5    1    2 nc   
     6    1   14 1    
     7    2    3 2    
     8    3    4 am   BACKBONE|DICT|INTERRES
     9    3   12 1    
    10    4    5 1    
    11    4   11 1    
    12    5    7 1    
    13    5    6 2    
    14    6   10 1    
    15    6    9 1    
    16    6   18 nc   
    17    7    8 3    
    18   13   20 1    
    19   13   19 1    
    20   13   15 1    
    21   14   16 1    
    22   14   22 1    
    23   14   21 1    
    24   15   57 1    
    25   15   58 1    
    26   15   16 1    
    27   16   55 1    
    28   16   56 1    
    29   19   36 1    
    30   19   39 1    
    31   19   23 1    
    32   20   33 1    
    33   20   26 1    
    34   20   43 1    
    35   21   25 1    
    36   21   47 1    
    37   21   30 1    
    38   22   51 1    
    39   22   24 1    
    40   22   27 1    
    41   27   28 1    
    42   27   29 1    
    43   27   30 1    
    44   30   32 1    
    45   30   31 1    
    46   33   35 1    
    47   33   36 1    
    48   33   34 1    
    49   36   38 1    
    50   36   37 1    
    51   39   42 1    
    52   39   41 1    
    53   39   40 1    
    54   43   45 1    
    55   43   44 1    
    56   43   46 1    
    57   47   48 1    
    58   47   50 1    
    59   47   49 1    
    60   51   54 1    
    61   51   52 1    
    62   51   53 1    
@<TRIPOS>SUBSTRUCTURE
     1 UNL         1 GROUP             0       ****    0 ROOT    
