@<TRIPOS>MOLECULE
MOL
   86    83     1     0     0
SMALL
resp


@<TRIPOS>ATOM
1     C1          -1.374    0.577     2.257 CF         1 MOL       -0.493766
2     C2          -0.181    1.495     2.293 CH         1 MOL        0.604327
3     C3           1.072    0.714     1.962 CF         1 MOL       -0.428180
4     C4           1.103   -0.631     2.091 CG         1 MOL       -0.120872
5     C5          -1.246   -0.750     2.348 CG         1 MOL       -0.125866
6     H1          -2.372    1.001     2.165 HF         1 MOL        0.155754
7     H2          -0.340    2.333     1.601 HG         1 MOL       -0.099961
8     H3           2.031   -1.176     1.921 HF         1 MOL        0.180818
9     H4          -2.100   -1.426     2.371 HF         1 MOL        0.134952
10    N1          -0.003   -1.381     2.392 NF         1 MOL        0.134225
11    C6           0.065   -2.816     2.530 CT         1 MOL       -0.144698
12    C7           2.343    1.353     1.568 CE         1 MOL        0.814536
13    O1           3.439    0.806     1.719 OE         1 MOL       -0.623362
14    N2           2.249    2.598     1.020 NE         1 MOL       -1.001321
15    H5           1.383    2.999     0.669 HE         1 MOL        0.413449
16    H6           3.117    2.988     0.683 HE         1 MOL        0.413449
17    H7           1.083   -3.152     2.317 H1         1 MOL        0.064396
18    H8          -0.206   -3.141     3.542 H1         1 MOL        0.064396
19    H9          -0.608   -3.305     1.811 H1         1 MOL        0.064396
20    C8          -5.937   -1.636     0.506 CC         1 MOL        0.238809
21    C9          -5.687   -2.937     0.821 CW         1 MOL       -0.348255
22    C10         -3.832   -2.106    -0.066 CR         1 MOL        0.064479
23    N3          -4.757   -1.150    -0.041 NA         1 MOL       -0.094292
24    H10         -4.518   -0.207    -0.410 H          1 MOL        0.319403
25    H11         -6.324   -3.686     1.267 H4         1 MOL        0.258406
26    H12         -2.811   -2.015    -0.457 H5         1 MOL        0.193060
27    N4          -4.380   -3.201     0.459 NA         1 MOL       -0.169786
28    C11         -7.181   -0.841     0.676 CT         1 MOL       -0.505102
29    H13         -3.903   -4.087     0.561 H          1 MOL        0.363613
30    H14         -7.027   -0.000     1.360 HC         1 MOL        0.170914
31    H15         -7.525   -0.434    -0.281 HC         1 MOL        0.170914
32    H16         -7.970   -1.476     1.084 HC         1 MOL        0.170914
33    C12         -0.465    5.310    -1.976 c3         1 MOL       -0.759622
34    C13         -2.370    4.270    -0.741 c3         1 MOL       -0.759622
35    C14         -0.920    4.079    -1.156 c3         1 MOL        0.709803
36    C15         -0.639    2.741    -1.877 QC         1 MOL       -0.050571
37    H17         -1.034    2.791    -2.902 hc         1 MOL        0.035729
38    H18          0.457    2.663    -1.974 hc         1 MOL        0.035729
39    C16         -1.076    1.395    -1.238 AC         1 MOL        0.298815
40    H19         -1.161    1.454    -0.139 AH         1 MOL        0.215805
41    O2          -0.112    4.033     0.037 oh         1 MOL       -0.732563
42    H20         -0.307    4.817     0.564 ho         1 MOL        0.424715
43    O3          -0.460    0.353    -1.731 AO         1 MOL       -0.679130
44    H21         -0.711   -0.941    -1.386 BH         1 MOL        0.388261
45    S1          -3.151    1.214    -1.579 AS         1 MOL       -0.690515
46    C17         -3.052    0.311    -3.162 RC         1 MOL        0.266875
47    H22         -3.679   -0.592    -3.104 h1         1 MOL       -0.028246
48    H23         -2.003   -0.025    -3.207 h1         1 MOL       -0.028246
49    C18         -3.410    1.113    -4.418 c3         1 MOL       -0.074720
50    H24         -2.860    0.674    -5.263 h1         1 MOL        0.128223
51    H25         -3.036    2.143    -4.303 h1         1 MOL        0.128223
52    C19         -5.700    1.866    -3.902 c3         1 MOL       -0.010085
53    N5          -4.806    1.183    -4.816 n3         1 MOL       -0.754053
54    H26         -5.151    0.245    -5.002 hn         1 MOL        0.371122
55    H27          0.590    5.216    -2.256 hc         1 MOL        0.190792
56    H28         -1.063    5.419    -2.888 hc         1 MOL        0.190792
57    H29         -0.589    6.218    -1.373 hc         1 MOL        0.190792
58    H30         -2.491    5.248    -0.254 hc         1 MOL        0.190792
59    H31         -3.041    4.232    -1.607 hc         1 MOL        0.190792
60    H32         -2.687    3.493    -0.035 hc         1 MOL        0.190792
61    H33         -5.338    2.890    -3.742 h1         1 MOL        0.066024
62    H34         -6.701    1.928    -4.343 h1         1 MOL        0.066024
63    H35         -5.793    1.404    -2.901 h1         1 MOL        0.066024
64    C20         -0.259   -2.940    -1.767 C          1 MOL        0.882812
65    O4           0.777   -2.697    -2.360 O          1 MOL       -0.641159
66    C21         -0.766   -4.388    -1.620 CT         1 MOL       -0.333696
67    O5          -1.016   -2.014    -1.198 BO         1 MOL       -0.684166
68    H36         -0.533   -4.756    -0.615 HC         1 MOL        0.083328
69    H37         -1.851   -4.442    -1.761 HC         1 MOL        0.083328
70    H38         -0.257   -5.017    -2.351 HC         1 MOL        0.083328
71    N6           3.008   -0.274    -1.230 N3         1 MOL       -0.489268
72    H39          3.356   -1.610    -0.343 HO         1 MOL        0.388261
73    H40          2.220    0.262    -0.869 H          1 MOL        0.277327
74    C22          4.205    0.564    -1.377 CT         1 MOL       -0.071435
75    H41          2.695   -0.638    -2.128 H          1 MOL        0.277327
76    C23          4.633   -3.056    -0.361 C          1 MOL        0.882812
77    O6           5.242   -2.617    -1.321 O          1 MOL       -0.641159
78    C24          5.010   -4.340     0.334 CT         1 MOL       -0.333696
79    O7           3.580   -2.472     0.182 OH         1 MOL       -0.684166
80    H42          5.026   -0.069    -1.728 HP         1 MOL        0.050566
81    H43          4.075    1.404    -2.074 HP         1 MOL        0.050566
82    H44          4.468    0.952    -0.388 HP         1 MOL        0.050566
83    H45          5.886   -4.781    -0.142 HC         1 MOL        0.083328
84    H46          5.219   -4.144     1.390 HC         1 MOL        0.083328
85    H47          4.172   -5.043     0.296 HC         1 MOL        0.083328
86    H48         -0.085    1.968     3.289 HG         1 MOL       -0.099961
@<TRIPOS>BOND
     1     1     2 1    
     2     1     5 2    
     3     1     6 1    
     4     2     3 1    
     5     2     7 1    
     6     2    86 1    
     7     3     4 2    
     8     3    12 1    
     9     4     8 1    
    10     4    10 1    
    11     5     9 1    
    12     5    10 1    
    13    10    11 1    
    14    11    17 1    
    15    11    18 1    
    16    11    19 1    
    17    12    13 2    
    18    12    14 1    
    19    14    15 1    
    20    14    16 1    
    21    20    21 2    
    22    20    23 1    
    23    20    28 1    
    24    21    25 1    
    25    21    27 1    
    26    22    23 1    
    27    22    26 1    
    28    22    27 1    
    29    23    24 1    
    30    27    29 1    
    31    28    30 1    
    32    28    31 1    
    33    28    32 1    
    34    33    35 1    
    35    33    55 1    
    36    33    56 1    
    37    33    57 1    
    38    34    35 1    
    39    34    58 1    
    40    34    59 1    
    41    34    60 1    
    42    35    36 1    
    43    35    41 1    
    44    36    37 1    
    45    36    38 1    
    46    36    39 1    
    47    39    40 1    
    48    39    43 1    
    49    39    45 1    
    50    41    42 1    
    51    43    44 1
    52    44    67 1    
    53    45    46 1    
    54    46    47 1    
    55    46    48 1    
    56    46    49 1    
    57    49    50 1    
    58    49    51 1    
    59    49    53 1    
    60    52    53 1    
    61    52    61 1    
    62    52    62 1    
    63    52    63 1    
    64    53    54 1    
    65    64    65 2    
    66    64    66 1    
    67    64    67 1    
    68    66    68 1    
    69    66    69 1    
    70    66    70 1    
    71    71    73 1    
    72    71    74 1    
    73    71    75 1    
    74    72    79 1    
    75    74    80 1    
    76    74    81 1    
    77    74    82 1    
    78    76    77 2    
    79    76    78 1    
    80    76    79 1    
    81    78    83 1    
    82    78    84 1    
    83    78    85 1    
@<TRIPOS>SUBSTRUCTURE
     1 MOL         1 TEMP              0 ****  ****    0 ROOT


